data_none

_audit_creation_method generated by ABACUS

_cell_length_a 10.2106
_cell_length_b 30.2527
_cell_length_c 10.2106
_cell_angle_alpha 90
_cell_angle_beta 60
_cell_angle_gamma 90

loop_
_atom_site_label
_atom_site_fract_x
_atom_site_fract_y
_atom_site_fract_z
Cu 0.05 0.396659 0.05
Cu 0.3 0.396659 0.05
Cu 0.55 0.396659 0.05
Cu 0.8 0.396659 0.05
Cu 0.05 0.396659 0.3
Cu 0.3 0.396659 0.3
Cu 0.55 0.396659 0.3
Cu 0.8 0.396659 0.3
Cu 0.05 0.396659 0.55
Cu 0.3 0.396659 0.55
Cu 0.55 0.396659 0.55
Cu 0.8 0.396659 0.55
Cu 0.05 0.396659 0.8
Cu 0.3 0.396659 0.8
Cu 0.55 0.396659 0.8
Cu 0.8 0.396659 0.8
Cu 0.133333 0.465553 0.133333
Cu 0.383333 0.465553 0.133333
Cu 0.633333 0.465553 0.133333
Cu 0.883333 0.465553 0.133333
Cu 0.133333 0.465553 0.383333
Cu 0.383333 0.465553 0.383333
Cu 0.633333 0.465553 0.383333
Cu 0.883333 0.465553 0.383333
Cu 0.133333 0.465553 0.633333
Cu 0.383333 0.465553 0.633333
Cu 0.633333 0.465553 0.633333
Cu 0.883333 0.465553 0.633333
Cu 0.133333 0.465553 0.883333
Cu 0.383333 0.465553 0.883333
Cu 0.633333 0.465553 0.883333
Cu 0.883333 0.465553 0.883333
Cu 0.965721 0.532561 0.217883
Cu 0.219183 0.531909 0.216179
Cu 0.46463 0.531916 0.220068
Cu 0.713946 0.531906 0.216196
Cu 0.969659 0.532181 0.464743
Cu 0.213435 0.533401 0.469797
Cu 0.466034 0.533414 0.469836
Cu 0.714899 0.532152 0.464741
Cu 0.965133 0.533621 0.71647
Cu 0.21587 0.532549 0.717582
Cu 0.467694 0.533619 0.716514
Cu 0.717332 0.533255 0.714715
Cu 0.965761 0.532496 0.967142
Cu 0.216433 0.532498 0.967156
Cu 0.468052 0.532796 0.965176
Cu 0.716105 0.532801 0.96518
Cu 0.050596 0.600233 0.047659
Cu 0.299377 0.599335 0.051415
Cu 0.544574 0.599085 0.059661
Cu 0.798091 0.599334 0.051376
Cu 0.058472 0.599092 0.289656
Cu 0.297656 0.599885 0.303848
Cu 0.547287 0.599884 0.303814
Cu 0.800715 0.599087 0.289624
Cu 0.045148 0.604808 0.550737
Cu 0.298447 0.600205 0.551824
Cu 0.552881 0.604781 0.5507
Cu 0.813212 0.598349 0.522336
Cu 0.05038 0.599831 0.800975
Cu 0.297448 0.599833 0.800957
Cu 0.543326 0.602603 0.812773
Cu 0.792658 0.602615 0.812779
N 0.653838 0.638342 0.643198
N 0.851622 0.638345 0.643187
