data_none

_audit_creation_method generated by ABACUS

_cell_length_a 11.5352
_cell_length_b 19.0638
_cell_length_c 11.5352
_cell_angle_alpha 90
_cell_angle_beta 120
_cell_angle_gamma 90

loop_
_atom_site_label
_atom_site_fract_x
_atom_site_fract_y
_atom_site_fract_z
H 0.501143 0.5746 0.647065
H 0.435173 0.574657 0.58036
Au 0.04 0.1 0.04
Au 0.29 0.1 0.04
Au 0.54 0.1 0.04
Au 0.79 0.1 0.04
Au 0.04 0.1 0.29
Au 0.29 0.1 0.29
Au 0.54 0.1 0.29
Au 0.79 0.1 0.29
Au 0.04 0.1 0.54
Au 0.29 0.1 0.54
Au 0.54 0.1 0.54
Au 0.79 0.1 0.54
Au 0.04 0.1 0.79
Au 0.29 0.1 0.79
Au 0.54 0.1 0.79
Au 0.79 0.1 0.79
Au 0.123333 0.223512 0.206667
Au 0.373333 0.223512 0.206667
Au 0.623333 0.223512 0.206667
Au 0.873333 0.223512 0.206667
Au 0.123333 0.223512 0.456667
Au 0.373333 0.223512 0.456667
Au 0.623333 0.223512 0.456667
Au 0.873333 0.223512 0.456667
Au 0.123333 0.223512 0.706667
Au 0.373333 0.223512 0.706667
Au 0.623333 0.223512 0.706667
Au 0.873333 0.223512 0.706667
Au 0.123333 0.223512 0.956667
Au 0.373333 0.223512 0.956667
Au 0.623333 0.223512 0.956667
Au 0.873333 0.223512 0.956667
Au 0.206212 0.347207 0.121356
Au 0.45773 0.347451 0.123702
Au 0.706779 0.347522 0.123607
Au 0.95641 0.347634 0.123734
Au 0.205402 0.346448 0.370592
Au 0.455093 0.346612 0.37152
Au 0.706386 0.347308 0.373743
Au 0.956536 0.347499 0.37336
Au 0.206143 0.346464 0.624114
Au 0.45658 0.346451 0.623579
Au 0.70859 0.346632 0.625018
Au 0.956439 0.347446 0.6224
Au 0.206595 0.347349 0.87354
Au 0.456022 0.346457 0.874039
Au 0.709548 0.34644 0.874742
Au 0.958762 0.347193 0.873918
Au 0.040968 0.475467 0.039302
Au 0.290123 0.475293 0.038985
Au 0.540369 0.475296 0.042063
Au 0.792489 0.47559 0.042208
Au 0.038111 0.475574 0.287857
Au 0.28902 0.473908 0.288318
Au 0.539657 0.475162 0.288708
Au 0.789808 0.474778 0.290475
Au 0.038242 0.475259 0.539886
Au 0.282645 0.469032 0.535573
Au 0.543079 0.46859 0.537017
Au 0.791561 0.475162 0.540626
Au 0.041275 0.475269 0.790132
Au 0.290983 0.474092 0.789254
Au 0.544725 0.468993 0.797741
Au 0.791906 0.473877 0.791205
