data_none

_audit_creation_method generated by ABACUS

_cell_length_a 10.2106
_cell_length_b 30.2527
_cell_length_c 10.2106
_cell_angle_alpha 90
_cell_angle_beta 60
_cell_angle_gamma 90

loop_
_atom_site_label
_atom_site_fract_x
_atom_site_fract_y
_atom_site_fract_z
Cu 0.05 0.396659 0.05
Cu 0.3 0.396659 0.05
Cu 0.55 0.396659 0.05
Cu 0.8 0.396659 0.05
Cu 0.05 0.396659 0.3
Cu 0.3 0.396659 0.3
Cu 0.55 0.396659 0.3
Cu 0.8 0.396659 0.3
Cu 0.05 0.396659 0.55
Cu 0.3 0.396659 0.55
Cu 0.55 0.396659 0.55
Cu 0.8 0.396659 0.55
Cu 0.05 0.396659 0.8
Cu 0.3 0.396659 0.8
Cu 0.55 0.396659 0.8
Cu 0.8 0.396659 0.8
Cu 0.133333 0.465553 0.133333
Cu 0.383333 0.465553 0.133333
Cu 0.633333 0.465553 0.133333
Cu 0.883333 0.465553 0.133333
Cu 0.133333 0.465553 0.383333
Cu 0.383333 0.465553 0.383333
Cu 0.633333 0.465553 0.383333
Cu 0.883333 0.465553 0.383333
Cu 0.133333 0.465553 0.633333
Cu 0.383333 0.465553 0.633333
Cu 0.633333 0.465553 0.633333
Cu 0.883333 0.465553 0.633333
Cu 0.133333 0.465553 0.883333
Cu 0.383333 0.465553 0.883333
Cu 0.633333 0.465553 0.883333
Cu 0.883333 0.465553 0.883333
Cu 0.966065 0.532325 0.217243
Cu 0.218025 0.531998 0.216905
Cu 0.464994 0.531688 0.219387
Cu 0.714406 0.531995 0.216929
Cu 0.966856 0.532942 0.466194
Cu 0.214332 0.532885 0.468655
Cu 0.466353 0.532892 0.46869
Cu 0.716314 0.532937 0.466212
Cu 0.964901 0.53338 0.716738
Cu 0.216016 0.532529 0.717346
Cu 0.467724 0.533386 0.716754
Cu 0.717168 0.533607 0.715051
Cu 0.966084 0.532433 0.96673
Cu 0.216585 0.532433 0.966728
Cu 0.467731 0.532638 0.965637
Cu 0.715983 0.532638 0.965653
Cu 0.05049 0.599995 0.047932
Cu 0.298476 0.599292 0.052285
Cu 0.545435 0.598996 0.058016
Cu 0.798166 0.599288 0.05228
Cu 0.055518 0.59903 0.29176
Cu 0.299648 0.599514 0.301424
Cu 0.547819 0.599514 0.301428
Cu 0.801624 0.599023 0.291778
Cu 0.054944 0.602991 0.545698
Cu 0.299211 0.599875 0.550446
Cu 0.548231 0.602993 0.545701
Cu 0.807762 0.603755 0.533328
Cu 0.050662 0.59993 0.800849
Cu 0.297385 0.599932 0.800833
Cu 0.542695 0.602582 0.81374
Cu 0.792405 0.602578 0.813766
N 0.626711 0.636623 0.641158
N 0.880981 0.63661 0.641172
