data_none

_audit_creation_method generated by ABACUS

_cell_length_a 11.5352
_cell_length_b 19.0638
_cell_length_c 11.5352
_cell_angle_alpha 90
_cell_angle_beta 120
_cell_angle_gamma 90

loop_
_atom_site_label
_atom_site_fract_x
_atom_site_fract_y
_atom_site_fract_z
H 0.496624 0.613806 0.650841
H 0.431738 0.618194 0.586008
Au 0.04 0.1 0.04
Au 0.29 0.1 0.04
Au 0.54 0.1 0.04
Au 0.79 0.1 0.04
Au 0.04 0.1 0.29
Au 0.29 0.1 0.29
Au 0.54 0.1 0.29
Au 0.79 0.1 0.29
Au 0.04 0.1 0.54
Au 0.29 0.1 0.54
Au 0.54 0.1 0.54
Au 0.79 0.1 0.54
Au 0.04 0.1 0.79
Au 0.29 0.1 0.79
Au 0.54 0.1 0.79
Au 0.79 0.1 0.79
Au 0.123333 0.223512 0.206667
Au 0.373333 0.223512 0.206667
Au 0.623333 0.223512 0.206667
Au 0.873333 0.223512 0.206667
Au 0.123333 0.223512 0.456667
Au 0.373333 0.223512 0.456667
Au 0.623333 0.223512 0.456667
Au 0.873333 0.223512 0.456667
Au 0.123333 0.223512 0.706667
Au 0.373333 0.223512 0.706667
Au 0.623333 0.223512 0.706667
Au 0.873333 0.223512 0.706667
Au 0.123333 0.223512 0.956667
Au 0.373333 0.223512 0.956667
Au 0.623333 0.223512 0.956667
Au 0.873333 0.223512 0.956667
Au 0.206288 0.347589 0.122451
Au 0.457207 0.347621 0.123509
Au 0.706706 0.347568 0.123324
Au 0.956478 0.347665 0.123627
Au 0.206071 0.346926 0.372096
Au 0.456053 0.346892 0.372069
Au 0.706661 0.34752 0.373416
Au 0.956766 0.347563 0.373374
Au 0.206174 0.346948 0.623882
Au 0.456723 0.346342 0.623402
Au 0.70804 0.346882 0.624065
Au 0.956574 0.34762 0.622849
Au 0.206428 0.347622 0.87364
Au 0.456241 0.346949 0.87396
Au 0.708014 0.346918 0.874057
Au 0.957617 0.347593 0.873782
Au 0.040281 0.475363 0.039964
Au 0.290085 0.47531 0.039915
Au 0.540184 0.47514 0.040515
Au 0.790665 0.475167 0.040525
Au 0.039721 0.475156 0.289586
Au 0.290093 0.474467 0.290046
Au 0.540085 0.47503 0.289587
Au 0.79015 0.475004 0.290106
Au 0.039741 0.475128 0.540072
Au 0.288643 0.471771 0.539243
Au 0.54094 0.471432 0.539304
Au 0.790666 0.475027 0.540164
Au 0.040345 0.475307 0.790184
Au 0.290343 0.474569 0.789904
Au 0.54101 0.471782 0.791611
Au 0.790185 0.474473 0.790136
