data_none

_audit_creation_method generated by ABACUS

_cell_length_a 10.862
_cell_length_b 10.862
_cell_length_c 10.862
_cell_angle_alpha 90
_cell_angle_beta 90
_cell_angle_gamma 90

loop_
_atom_site_label
_atom_site_fract_x
_atom_site_fract_y
_atom_site_fract_z
Li 0.596309 0.596307 0.596309
Si 0.127987 0.376972 0.127986
Si 0.127156 0.377574 0.627475
Si 0.126606 0.87781 0.126616
Si 0.126657 0.877776 0.627566
Si 0.627484 0.377578 0.127149
Si 0.629152 0.371921 0.62915
Si 0.62756 0.877783 0.126669
Si 0.625785 0.877473 0.625792
Si 0.002956 0.002946 0.25233
Si 0.001744 0.001743 0.752821
Si 0.003355 0.50309 0.251264
Si 0.002332 0.502409 0.752562
Si 0.50309 0.003343 0.251276
Si 0.502393 0.002335 0.752576
Si 0.50247 0.502459 0.251608
Si 0.496458 0.496442 0.7591
Si 0.127987 0.127986 0.376977
Si 0.126601 0.126615 0.877813
Si 0.127155 0.627472 0.377578
Si 0.126654 0.627557 0.877781
Si 0.627483 0.127165 0.377567
Si 0.627559 0.126673 0.877773
Si 0.629147 0.629159 0.371915
Si 0.625776 0.6258 0.877462
Si 0.00295 0.252338 0.002943
Si 0.003355 0.25127 0.503082
Si 0.001743 0.752824 0.001746
Si 0.002335 0.752567 0.502407
Si 0.50309 0.25127 0.003347
Si 0.502467 0.251603 0.502462
Si 0.502393 0.752572 0.002345
Si 0.496454 0.759095 0.496452
Si 0.378524 0.378513 0.378519
Si 0.372182 0.372184 0.881585
Si 0.372188 0.881577 0.372196
Si 0.377966 0.878663 0.878663
Si 0.881589 0.37218 0.372171
Si 0.878647 0.377991 0.878648
Si 0.878655 0.878655 0.377979
Si 0.876311 0.876324 0.87632
Si 0.252322 0.002953 0.00296
Si 0.251271 0.003343 0.503098
Si 0.25127 0.503092 0.003351
Si 0.251613 0.502461 0.502465
Si 0.752818 0.001744 0.001743
Si 0.752572 0.002332 0.502396
Si 0.752567 0.502409 0.002323
Si 0.759104 0.496448 0.496447
Si 0.376981 0.127985 0.127987
Si 0.377572 0.127165 0.627481
Si 0.377566 0.627471 0.127174
Si 0.371908 0.629157 0.629156
Si 0.877817 0.126611 0.126601
Si 0.877777 0.126671 0.627551
Si 0.877771 0.627556 0.126657
Si 0.87745 0.625794 0.625787
Si 0.253395 0.25338 0.253387
Si 0.250578 0.25058 0.751542
Si 0.250578 0.751536 0.25059
Si 0.250751 0.755262 0.75527
Si 0.751549 0.250582 0.250568
Si 0.755264 0.250764 0.755255
Si 0.755264 0.755261 0.250758
Si 0.750825 0.750835 0.750831
