data_none

_audit_creation_method generated by ABACUS

_cell_length_a 10.862
_cell_length_b 10.862
_cell_length_c 10.862
_cell_angle_alpha 90
_cell_angle_beta 90
_cell_angle_gamma 90

loop_
_atom_site_label
_atom_site_fract_x
_atom_site_fract_y
_atom_site_fract_z
Li 0.533746 0.533736 0.533727
Si 0.128381 0.37741 0.128376
Si 0.127858 0.377608 0.62778
Si 0.127287 0.877841 0.127287
Si 0.126809 0.878953 0.627091
Si 0.62779 0.37761 0.127851
Si 0.633676 0.371107 0.633678
Si 0.627095 0.878954 0.126803
Si 0.627823 0.878624 0.627814
Si 0.003513 0.00352 0.252411
Si 0.002259 0.002262 0.753195
Si 0.00353 0.502654 0.252425
Si 0.003047 0.502738 0.752603
Si 0.502645 0.00353 0.252431
Si 0.502733 0.003044 0.752611
Si 0.504299 0.504302 0.252646
Si 0.501091 0.501086 0.758176
Si 0.12838 0.12838 0.377416
Si 0.127288 0.127282 0.877837
Si 0.12786 0.627783 0.377615
Si 0.126808 0.627085 0.878949
Si 0.627787 0.127864 0.377608
Si 0.627095 0.126806 0.878944
Si 0.633673 0.633694 0.371107
Si 0.627822 0.627819 0.878613
Si 0.003514 0.252408 0.00351
Si 0.003527 0.252429 0.502648
Si 0.002261 0.753199 0.002259
Si 0.003048 0.752612 0.502739
Si 0.502645 0.252417 0.003534
Si 0.504294 0.252639 0.504311
Si 0.502732 0.752602 0.003056
Si 0.501083 0.75817 0.501106
Si 0.379181 0.379177 0.379181
Si 0.374987 0.374977 0.879476
Si 0.374987 0.879478 0.374989
Si 0.378692 0.879528 0.879533
Si 0.879485 0.374994 0.374981
Si 0.879539 0.378691 0.879523
Si 0.879538 0.879538 0.378683
Si 0.876917 0.876915 0.876904
Si 0.252398 0.003508 0.003517
Si 0.252417 0.003526 0.502655
Si 0.252418 0.502643 0.003533
Si 0.252642 0.504297 0.504309
Si 0.753195 0.002263 0.002261
Si 0.752606 0.003055 0.502736
Si 0.75261 0.502741 0.003047
Si 0.75817 0.501097 0.501095
Si 0.377412 0.128373 0.128377
Si 0.377607 0.127849 0.627785
Si 0.377606 0.627781 0.127858
Si 0.371105 0.633665 0.633684
Si 0.877852 0.12729 0.12728
Si 0.878959 0.126811 0.627083
Si 0.878959 0.627097 0.126802
Si 0.878623 0.627824 0.627811
Si 0.253755 0.253758 0.253767
Si 0.251601 0.251604 0.752211
Si 0.251599 0.752207 0.25162
Si 0.248471 0.758011 0.758023
Si 0.75221 0.251613 0.251611
Si 0.758018 0.248477 0.758013
Si 0.758016 0.758025 0.248476
Si 0.751833 0.751835 0.75183
