data_none

_audit_creation_method generated by ABACUS

_cell_length_a 11.5352
_cell_length_b 19.0638
_cell_length_c 11.5352
_cell_angle_alpha 90
_cell_angle_beta 120
_cell_angle_gamma 90

loop_
_atom_site_label
_atom_site_fract_x
_atom_site_fract_y
_atom_site_fract_z
H 0.597319 0.527087 0.70431
H 0.378579 0.528664 0.489171
Au 0.04 0.1 0.04
Au 0.29 0.1 0.04
Au 0.54 0.1 0.04
Au 0.79 0.1 0.04
Au 0.04 0.1 0.29
Au 0.29 0.1 0.29
Au 0.54 0.1 0.29
Au 0.79 0.1 0.29
Au 0.04 0.1 0.54
Au 0.29 0.1 0.54
Au 0.54 0.1 0.54
Au 0.79 0.1 0.54
Au 0.04 0.1 0.79
Au 0.29 0.1 0.79
Au 0.54 0.1 0.79
Au 0.79 0.1 0.79
Au 0.123333 0.223512 0.206667
Au 0.373333 0.223512 0.206667
Au 0.623333 0.223512 0.206667
Au 0.873333 0.223512 0.206667
Au 0.123333 0.223512 0.456667
Au 0.373333 0.223512 0.456667
Au 0.623333 0.223512 0.456667
Au 0.873333 0.223512 0.456667
Au 0.123333 0.223512 0.706667
Au 0.373333 0.223512 0.706667
Au 0.623333 0.223512 0.706667
Au 0.873333 0.223512 0.706667
Au 0.123333 0.223512 0.956667
Au 0.373333 0.223512 0.956667
Au 0.623333 0.223512 0.956667
Au 0.873333 0.223512 0.956667
Au 0.208828 0.34685 0.125566
Au 0.456293 0.346275 0.124029
Au 0.706278 0.347065 0.123751
Au 0.956902 0.346932 0.123138
Au 0.206566 0.347795 0.37285
Au 0.457359 0.349695 0.378277
Au 0.706095 0.347006 0.374141
Au 0.956551 0.347072 0.374021
Au 0.208274 0.348389 0.62243
Au 0.456477 0.349329 0.623695
Au 0.701835 0.349779 0.622873
Au 0.956114 0.346319 0.62392
Au 0.206569 0.345829 0.87354
Au 0.457692 0.348301 0.871959
Au 0.707227 0.347845 0.873531
Au 0.954203 0.347032 0.871082
Au 0.04034 0.47367 0.039451
Au 0.289471 0.473155 0.040439
Au 0.539177 0.473142 0.043863
Au 0.791953 0.473542 0.043554
Au 0.036821 0.473536 0.288203
Au 0.286477 0.4767 0.285866
Au 0.538827 0.473657 0.291752
Au 0.78855 0.473479 0.291846
Au 0.036534 0.473112 0.54108
Au 0.280952 0.477681 0.540003
Au 0.540573 0.489382 0.538467
Au 0.788032 0.473627 0.54125
Au 0.039342 0.473177 0.790484
Au 0.288118 0.473722 0.792108
Au 0.540008 0.477596 0.799576
Au 0.793594 0.477387 0.793529
