data_none

_audit_creation_method generated by ABACUS

_cell_length_a 11.5352
_cell_length_b 19.0638
_cell_length_c 11.5352
_cell_angle_alpha 90
_cell_angle_beta 120
_cell_angle_gamma 90

loop_
_atom_site_label
_atom_site_fract_x
_atom_site_fract_y
_atom_site_fract_z
H 0.585818 0.52816 0.700313
H 0.380944 0.528803 0.497071
Au 0.04 0.1 0.04
Au 0.29 0.1 0.04
Au 0.54 0.1 0.04
Au 0.79 0.1 0.04
Au 0.04 0.1 0.29
Au 0.29 0.1 0.29
Au 0.54 0.1 0.29
Au 0.79 0.1 0.29
Au 0.04 0.1 0.54
Au 0.29 0.1 0.54
Au 0.54 0.1 0.54
Au 0.79 0.1 0.54
Au 0.04 0.1 0.79
Au 0.29 0.1 0.79
Au 0.54 0.1 0.79
Au 0.79 0.1 0.79
Au 0.123333 0.223512 0.206667
Au 0.373333 0.223512 0.206667
Au 0.623333 0.223512 0.206667
Au 0.873333 0.223512 0.206667
Au 0.123333 0.223512 0.456667
Au 0.373333 0.223512 0.456667
Au 0.623333 0.223512 0.456667
Au 0.873333 0.223512 0.456667
Au 0.123333 0.223512 0.706667
Au 0.373333 0.223512 0.706667
Au 0.623333 0.223512 0.706667
Au 0.873333 0.223512 0.706667
Au 0.123333 0.223512 0.956667
Au 0.373333 0.223512 0.956667
Au 0.623333 0.223512 0.956667
Au 0.873333 0.223512 0.956667
Au 0.20839 0.346662 0.125299
Au 0.45597 0.346326 0.124006
Au 0.706091 0.347134 0.123999
Au 0.956724 0.347079 0.123333
Au 0.20592 0.347435 0.3727
Au 0.45719 0.349456 0.37818
Au 0.706156 0.346866 0.373989
Au 0.956157 0.347144 0.374069
Au 0.20778 0.348272 0.622713
Au 0.456132 0.348247 0.623955
Au 0.701897 0.349499 0.622939
Au 0.956097 0.346347 0.624167
Au 0.206265 0.34584 0.873815
Au 0.457341 0.348239 0.872323
Au 0.707349 0.347444 0.87415
Au 0.954644 0.346737 0.871615
Au 0.04003 0.474009 0.039968
Au 0.289266 0.473453 0.040816
Au 0.538906 0.473198 0.044225
Au 0.791738 0.473682 0.044061
Au 0.036136 0.473688 0.288384
Au 0.285849 0.475548 0.285535
Au 0.53884 0.473358 0.292483
Au 0.788156 0.473913 0.292033
Au 0.035977 0.473195 0.541238
Au 0.279693 0.47663 0.539351
Au 0.539434 0.487009 0.540132
Au 0.787503 0.473351 0.541265
Au 0.039151 0.473468 0.790758
Au 0.287621 0.473345 0.792536
Au 0.540714 0.476605 0.800561
Au 0.79431 0.475783 0.794211
