data_none

_audit_creation_method generated by ABACUS

_cell_length_a 11.1874
_cell_length_b 18.8509
_cell_length_c 11.1874
_cell_angle_alpha 90
_cell_angle_beta 120
_cell_angle_gamma 90

loop_
_atom_site_label
_atom_site_fract_x
_atom_site_fract_y
_atom_site_fract_z
C 0.466592 0.435045 0.60729
O 0.468522 0.498359 0.60767
Pt 0.044552 0 0.022276
Pt 0.294552 0 0.022276
Pt 0.544552 0 0.022276
Pt 0.794552 0 0.022276
Pt 0.044552 0 0.272276
Pt 0.294552 0 0.272276
Pt 0.544552 0 0.272276
Pt 0.794552 0 0.272276
Pt 0.294552 0 0.522276
Pt 0.544552 0 0.522276
Pt 0.794552 0 0.522276
Pt 0.044552 0 0.522276
Pt 0.044552 0 0.772276
Pt 0.294552 0 0.772276
Pt 0.544552 0 0.772276
Pt 0.794552 0 0.772276
Pt 0.879087 0.120644 0.189342
Pt 0.879084 0.120656 0.439393
Pt 0.878884 0.120347 0.939309
Pt 0.628934 0.120649 0.189283
Pt 0.379095 0.1203 0.18947
Pt 0.129087 0.120362 0.189568
Pt 0.878912 0.120334 0.689213
Pt 0.129041 0.120525 0.939315
Pt 0.628687 0.12105 0.439662
Pt 0.379132 0.120292 0.939201
Pt 0.129747 0.121193 0.439674
Pt 0.6287 0.121092 0.93863
Pt 0.628825 0.121421 0.689215
Pt 0.129089 0.12034 0.689113
Pt 0.37908 0.121442 0.4395
Pt 0.379076 0.12146 0.689192
Pt 0.963223 0.238334 0.856236
Pt 0.96356 0.23889 0.106349
Pt 0.963464 0.239238 0.356357
Pt 0.463046 0.238797 0.106058
Pt 0.713378 0.239152 0.106286
Pt 0.713387 0.23914 0.356312
Pt 0.963645 0.238879 0.606493
Pt 0.213425 0.238343 0.106542
Pt 0.463894 0.240122 0.357459
Pt 0.213487 0.238318 0.856055
Pt 0.712074 0.240213 0.85552
Pt 0.712192 0.240141 0.605733
Pt 0.214261 0.240369 0.357784
Pt 0.463919 0.240191 0.855537
Pt 0.46337 0.241732 0.606264
Pt 0.214229 0.240365 0.605657
Pt 0.047371 0.360137 0.273159
Pt 0.547768 0.359936 0.272735
Pt 0.04743 0.360156 0.523048
Pt 0.547726 0.359985 0.023631
Pt 0.047445 0.359775 0.023395
Pt 0.797691 0.360141 0.273221
Pt 0.297709 0.359676 0.023231
Pt 0.801916 0.359121 0.775315
Pt 0.797966 0.359999 0.023809
Pt 0.798115 0.359979 0.522946
Pt 0.047527 0.359736 0.772964
Pt 0.295516 0.359236 0.26902
Pt 0.549307 0.365293 0.521577
Pt 0.549155 0.365571 0.776166
Pt 0.295504 0.359274 0.775214
Pt 0.295569 0.36617 0.522109
