data_none

_audit_creation_method generated by ABACUS

_cell_length_a 10.2106
_cell_length_b 30.2527
_cell_length_c 10.2106
_cell_angle_alpha 90
_cell_angle_beta 60
_cell_angle_gamma 90

loop_
_atom_site_label
_atom_site_fract_x
_atom_site_fract_y
_atom_site_fract_z
Cu 0.05 0.396659 0.05
Cu 0.3 0.396659 0.05
Cu 0.55 0.396659 0.05
Cu 0.8 0.396659 0.05
Cu 0.05 0.396659 0.3
Cu 0.3 0.396659 0.3
Cu 0.55 0.396659 0.3
Cu 0.8 0.396659 0.3
Cu 0.05 0.396659 0.55
Cu 0.3 0.396659 0.55
Cu 0.55 0.396659 0.55
Cu 0.8 0.396659 0.55
Cu 0.05 0.396659 0.8
Cu 0.3 0.396659 0.8
Cu 0.55 0.396659 0.8
Cu 0.8 0.396659 0.8
Cu 0.133333 0.465553 0.133333
Cu 0.383333 0.465553 0.133333
Cu 0.633333 0.465553 0.133333
Cu 0.883333 0.465553 0.133333
Cu 0.133333 0.465553 0.383333
Cu 0.383333 0.465553 0.383333
Cu 0.633333 0.465553 0.383333
Cu 0.883333 0.465553 0.383333
Cu 0.133333 0.465553 0.633333
Cu 0.383333 0.465553 0.633333
Cu 0.633333 0.465553 0.633333
Cu 0.883333 0.465553 0.633333
Cu 0.133333 0.465553 0.883333
Cu 0.383333 0.465553 0.883333
Cu 0.633333 0.465553 0.883333
Cu 0.883333 0.465553 0.883333
Cu 0.966675 0.532422 0.216476
Cu 0.216725 0.532418 0.216387
Cu 0.46661 0.532436 0.216605
Cu 0.716681 0.532417 0.216322
Cu 0.967385 0.532177 0.466081
Cu 0.216946 0.532395 0.466359
Cu 0.466462 0.532371 0.466295
Cu 0.71638 0.532199 0.466139
Cu 0.966899 0.532332 0.716367
Cu 0.216596 0.532424 0.7165
Cu 0.46642 0.532262 0.716314
Cu 0.716646 0.532148 0.716647
Cu 0.966642 0.532479 0.966493
Cu 0.216648 0.532459 0.966515
Cu 0.466335 0.53223 0.967069
Cu 0.716508 0.532323 0.966777
Cu 0.049959 0.59981 0.049672
Cu 0.299971 0.599876 0.049744
Cu 0.550014 0.59978 0.049574
Cu 0.799915 0.599873 0.049646
Cu 0.050143 0.599834 0.299509
Cu 0.30004 0.59981 0.299637
Cu 0.550005 0.599829 0.299634
Cu 0.799994 0.599807 0.299487
Cu 0.05017 0.599641 0.54951
Cu 0.299987 0.599856 0.549669
Cu 0.549906 0.599544 0.549553
Cu 0.800679 0.598549 0.548679
Cu 0.050034 0.599839 0.799617
Cu 0.29991 0.59983 0.799658
Cu 0.549114 0.598908 0.800342
Cu 0.800184 0.599326 0.799961
N 0.670159 0.698045 0.65369
N 0.765147 0.696788 0.67614
