data_none

_audit_creation_method generated by ABACUS

_cell_length_a 11.5352
_cell_length_b 19.0638
_cell_length_c 11.5352
_cell_angle_alpha 90
_cell_angle_beta 120
_cell_angle_gamma 90

loop_
_atom_site_label
_atom_site_fract_x
_atom_site_fract_y
_atom_site_fract_z
H 0.558956 0.532818 0.688977
H 0.392508 0.532621 0.521948
Au 0.04 0.1 0.04
Au 0.29 0.1 0.04
Au 0.54 0.1 0.04
Au 0.79 0.1 0.04
Au 0.04 0.1 0.29
Au 0.29 0.1 0.29
Au 0.54 0.1 0.29
Au 0.79 0.1 0.29
Au 0.04 0.1 0.54
Au 0.29 0.1 0.54
Au 0.54 0.1 0.54
Au 0.79 0.1 0.54
Au 0.04 0.1 0.79
Au 0.29 0.1 0.79
Au 0.54 0.1 0.79
Au 0.79 0.1 0.79
Au 0.123333 0.223512 0.206667
Au 0.373333 0.223512 0.206667
Au 0.623333 0.223512 0.206667
Au 0.873333 0.223512 0.206667
Au 0.123333 0.223512 0.456667
Au 0.373333 0.223512 0.456667
Au 0.623333 0.223512 0.456667
Au 0.873333 0.223512 0.456667
Au 0.123333 0.223512 0.706667
Au 0.373333 0.223512 0.706667
Au 0.623333 0.223512 0.706667
Au 0.873333 0.223512 0.706667
Au 0.123333 0.223512 0.956667
Au 0.373333 0.223512 0.956667
Au 0.623333 0.223512 0.956667
Au 0.873333 0.223512 0.956667
Au 0.208248 0.346483 0.124171
Au 0.456832 0.346231 0.123966
Au 0.706426 0.347349 0.123576
Au 0.956694 0.347084 0.123485
Au 0.206178 0.347145 0.372084
Au 0.457123 0.349192 0.377416
Au 0.706217 0.346976 0.373893
Au 0.956596 0.347377 0.373752
Au 0.208258 0.348619 0.62224
Au 0.456467 0.348826 0.623717
Au 0.702761 0.349195 0.623028
Au 0.956158 0.346237 0.623296
Au 0.207353 0.346179 0.872859
Au 0.458069 0.348661 0.871926
Au 0.708081 0.347143 0.873934
Au 0.956045 0.346487 0.871966
Au 0.041241 0.473952 0.039175
Au 0.290401 0.47334 0.03947
Au 0.539673 0.473453 0.043588
Au 0.793394 0.474429 0.044109
Au 0.036171 0.474471 0.28697
Au 0.286026 0.475162 0.284416
Au 0.538909 0.473892 0.291927
Au 0.788646 0.473634 0.291664
Au 0.036782 0.473437 0.540606
Au 0.278877 0.476945 0.534311
Au 0.54014 0.486123 0.540531
Au 0.788247 0.473867 0.541312
Au 0.040832 0.473319 0.789883
Au 0.290255 0.47399 0.789966
Au 0.545984 0.477061 0.8017
Au 0.796014 0.475146 0.794342
