data_none

_audit_creation_method generated by ABACUS

_cell_length_a 11.5352
_cell_length_b 19.0638
_cell_length_c 11.5352
_cell_angle_alpha 90
_cell_angle_beta 120
_cell_angle_gamma 90

loop_
_atom_site_label
_atom_site_fract_x
_atom_site_fract_y
_atom_site_fract_z
H 0.501417 0.576358 0.645814
H 0.435127 0.576358 0.579573
Au 0.04 0.1 0.04
Au 0.29 0.1 0.04
Au 0.54 0.1 0.04
Au 0.79 0.1 0.04
Au 0.04 0.1 0.29
Au 0.29 0.1 0.29
Au 0.54 0.1 0.29
Au 0.79 0.1 0.29
Au 0.04 0.1 0.54
Au 0.29 0.1 0.54
Au 0.54 0.1 0.54
Au 0.79 0.1 0.54
Au 0.04 0.1 0.79
Au 0.29 0.1 0.79
Au 0.54 0.1 0.79
Au 0.79 0.1 0.79
Au 0.123333 0.223512 0.206667
Au 0.373333 0.223512 0.206667
Au 0.623333 0.223512 0.206667
Au 0.873333 0.223512 0.206667
Au 0.123333 0.223512 0.456667
Au 0.373333 0.223512 0.456667
Au 0.623333 0.223512 0.456667
Au 0.873333 0.223512 0.456667
Au 0.123333 0.223512 0.706667
Au 0.373333 0.223512 0.706667
Au 0.623333 0.223512 0.706667
Au 0.873333 0.223512 0.706667
Au 0.123333 0.223512 0.956667
Au 0.373333 0.223512 0.956667
Au 0.623333 0.223512 0.956667
Au 0.873333 0.223512 0.956667
Au 0.205936 0.347242 0.121617
Au 0.457481 0.347429 0.123792
Au 0.706571 0.347551 0.123684
Au 0.956186 0.347625 0.123921
Au 0.205282 0.346428 0.37093
Au 0.454955 0.346513 0.371559
Au 0.706324 0.347338 0.373779
Au 0.956424 0.34755 0.373525
Au 0.205926 0.346494 0.624375
Au 0.456401 0.346523 0.623724
Au 0.708554 0.346512 0.625149
Au 0.956317 0.347429 0.622604
Au 0.206329 0.347403 0.873767
Au 0.45573 0.34649 0.874199
Au 0.709184 0.346419 0.874834
Au 0.958497 0.347233 0.874166
Au 0.040521 0.475507 0.039714
Au 0.289668 0.475283 0.039301
Au 0.539949 0.475355 0.042205
Au 0.792023 0.475569 0.04233
Au 0.037866 0.475567 0.288189
Au 0.28885 0.473889 0.288847
Au 0.539351 0.475114 0.288761
Au 0.789548 0.474873 0.290647
Au 0.037994 0.475343 0.540247
Au 0.282512 0.469093 0.536051
Au 0.542978 0.468386 0.537187
Au 0.791446 0.475115 0.540856
Au 0.040925 0.475287 0.790553
Au 0.290632 0.474259 0.789552
Au 0.54416 0.46907 0.797714
Au 0.791377 0.473861 0.79135
