data_none

_audit_creation_method generated by ABACUS

_cell_length_a 11.5352
_cell_length_b 19.0638
_cell_length_c 11.5352
_cell_angle_alpha 90
_cell_angle_beta 120
_cell_angle_gamma 90

loop_
_atom_site_label
_atom_site_fract_x
_atom_site_fract_y
_atom_site_fract_z
H 0.559142 0.53212 0.689702
H 0.391267 0.53223 0.521857
Au 0.04 0.1 0.04
Au 0.29 0.1 0.04
Au 0.54 0.1 0.04
Au 0.79 0.1 0.04
Au 0.04 0.1 0.29
Au 0.29 0.1 0.29
Au 0.54 0.1 0.29
Au 0.79 0.1 0.29
Au 0.04 0.1 0.54
Au 0.29 0.1 0.54
Au 0.54 0.1 0.54
Au 0.79 0.1 0.54
Au 0.04 0.1 0.79
Au 0.29 0.1 0.79
Au 0.54 0.1 0.79
Au 0.79 0.1 0.79
Au 0.123333 0.223512 0.206667
Au 0.373333 0.223512 0.206667
Au 0.623333 0.223512 0.206667
Au 0.873333 0.223512 0.206667
Au 0.123333 0.223512 0.456667
Au 0.373333 0.223512 0.456667
Au 0.623333 0.223512 0.456667
Au 0.873333 0.223512 0.456667
Au 0.123333 0.223512 0.706667
Au 0.373333 0.223512 0.706667
Au 0.623333 0.223512 0.706667
Au 0.873333 0.223512 0.706667
Au 0.123333 0.223512 0.956667
Au 0.373333 0.223512 0.956667
Au 0.623333 0.223512 0.956667
Au 0.873333 0.223512 0.956667
Au 0.208179 0.346216 0.124047
Au 0.456564 0.346402 0.123775
Au 0.706418 0.347183 0.123779
Au 0.956834 0.3471 0.123335
Au 0.206132 0.347322 0.372115
Au 0.457323 0.349284 0.377578
Au 0.706335 0.346687 0.37384
Au 0.956386 0.347176 0.37374
Au 0.208414 0.348456 0.622171
Au 0.456592 0.348211 0.623631
Au 0.702579 0.349315 0.622822
Au 0.956437 0.346408 0.623583
Au 0.207268 0.345855 0.872874
Au 0.457949 0.348447 0.871824
Au 0.708041 0.347301 0.87407
Au 0.956114 0.346217 0.871962
Au 0.041218 0.474154 0.039033
Au 0.290443 0.473469 0.039527
Au 0.540164 0.473332 0.044258
Au 0.793438 0.474275 0.044332
Au 0.036122 0.474266 0.286978
Au 0.286097 0.474328 0.283787
Au 0.539397 0.473692 0.29265
Au 0.788584 0.473913 0.291761
Au 0.036179 0.473333 0.540065
Au 0.278484 0.476688 0.535103
Au 0.53969 0.486592 0.540559
Au 0.787692 0.473688 0.540904
Au 0.040654 0.473444 0.789694
Au 0.289281 0.473571 0.790977
Au 0.545233 0.476627 0.802049
Au 0.796423 0.474301 0.794218
