data_none

_audit_creation_method generated by ABACUS

_cell_length_a 11.5352
_cell_length_b 19.0638
_cell_length_c 11.5352
_cell_angle_alpha 90
_cell_angle_beta 120
_cell_angle_gamma 90

loop_
_atom_site_label
_atom_site_fract_x
_atom_site_fract_y
_atom_site_fract_z
H 0.51625 0.534849 0.66145
H 0.420176 0.534795 0.564737
Au 0.04 0.1 0.04
Au 0.29 0.1 0.04
Au 0.54 0.1 0.04
Au 0.79 0.1 0.04
Au 0.04 0.1 0.29
Au 0.29 0.1 0.29
Au 0.54 0.1 0.29
Au 0.79 0.1 0.29
Au 0.04 0.1 0.54
Au 0.29 0.1 0.54
Au 0.54 0.1 0.54
Au 0.79 0.1 0.54
Au 0.04 0.1 0.79
Au 0.29 0.1 0.79
Au 0.54 0.1 0.79
Au 0.79 0.1 0.79
Au 0.123333 0.223512 0.206667
Au 0.373333 0.223512 0.206667
Au 0.623333 0.223512 0.206667
Au 0.873333 0.223512 0.206667
Au 0.123333 0.223512 0.456667
Au 0.373333 0.223512 0.456667
Au 0.623333 0.223512 0.456667
Au 0.873333 0.223512 0.456667
Au 0.123333 0.223512 0.706667
Au 0.373333 0.223512 0.706667
Au 0.623333 0.223512 0.706667
Au 0.873333 0.223512 0.706667
Au 0.123333 0.223512 0.956667
Au 0.373333 0.223512 0.956667
Au 0.623333 0.223512 0.956667
Au 0.873333 0.223512 0.956667
Au 0.20726 0.346158 0.122878
Au 0.457095 0.346612 0.12348
Au 0.7066 0.347325 0.123909
Au 0.956606 0.347122 0.12361
Au 0.206495 0.347393 0.372337
Au 0.456435 0.348909 0.37594
Au 0.706116 0.346764 0.374023
Au 0.956233 0.34729 0.373544
Au 0.208419 0.348155 0.622892
Au 0.456538 0.348982 0.623638
Au 0.704149 0.348938 0.623673
Au 0.956694 0.346596 0.623019
Au 0.207231 0.346132 0.872909
Au 0.457256 0.348173 0.871785
Au 0.707812 0.347377 0.873692
Au 0.957243 0.346136 0.87286
Au 0.041327 0.474307 0.038884
Au 0.290135 0.473755 0.038673
Au 0.540016 0.474277 0.043642
Au 0.79417 0.475111 0.044651
Au 0.035763 0.475119 0.286198
Au 0.286472 0.474141 0.284591
Au 0.539284 0.474253 0.289563
Au 0.78904 0.473941 0.291311
Au 0.03672 0.474268 0.540245
Au 0.276942 0.476058 0.53083
Au 0.543449 0.480334 0.536537
Au 0.790665 0.47424 0.540951
Au 0.041424 0.473728 0.78997
Au 0.290767 0.473999 0.789505
Au 0.549543 0.476079 0.803549
Au 0.795596 0.474087 0.793791
