data_none

_audit_creation_method generated by ABACUS

_cell_length_a 10.2106
_cell_length_b 30.2527
_cell_length_c 10.2106
_cell_angle_alpha 90
_cell_angle_beta 60
_cell_angle_gamma 90

loop_
_atom_site_label
_atom_site_fract_x
_atom_site_fract_y
_atom_site_fract_z
Cu 0.05 0.396659 0.05
Cu 0.3 0.396659 0.05
Cu 0.55 0.396659 0.05
Cu 0.8 0.396659 0.05
Cu 0.05 0.396659 0.3
Cu 0.3 0.396659 0.3
Cu 0.55 0.396659 0.3
Cu 0.8 0.396659 0.3
Cu 0.05 0.396659 0.55
Cu 0.3 0.396659 0.55
Cu 0.55 0.396659 0.55
Cu 0.8 0.396659 0.55
Cu 0.05 0.396659 0.8
Cu 0.3 0.396659 0.8
Cu 0.55 0.396659 0.8
Cu 0.8 0.396659 0.8
Cu 0.133333 0.465553 0.133333
Cu 0.383333 0.465553 0.133333
Cu 0.633333 0.465553 0.133333
Cu 0.883333 0.465553 0.133333
Cu 0.133333 0.465553 0.383333
Cu 0.383333 0.465553 0.383333
Cu 0.633333 0.465553 0.383333
Cu 0.883333 0.465553 0.383333
Cu 0.133333 0.465553 0.633333
Cu 0.383333 0.465553 0.633333
Cu 0.633333 0.465553 0.633333
Cu 0.883333 0.465553 0.633333
Cu 0.133333 0.465553 0.883333
Cu 0.383333 0.465553 0.883333
Cu 0.633333 0.465553 0.883333
Cu 0.883333 0.465553 0.883333
Cu 0.96669 0.5322 0.216074
Cu 0.217506 0.532099 0.215864
Cu 0.46625 0.532124 0.21697
Cu 0.716093 0.532104 0.215777
Cu 0.968585 0.531664 0.465206
Cu 0.217449 0.532083 0.466196
Cu 0.465809 0.532095 0.466173
Cu 0.715614 0.531666 0.465208
Cu 0.966959 0.532115 0.715967
Cu 0.216401 0.532204 0.716571
Cu 0.46641 0.532059 0.715903
Cu 0.716655 0.532025 0.716146
Cu 0.966374 0.532323 0.96653
Cu 0.216515 0.532318 0.966561
Cu 0.466551 0.53199 0.966945
Cu 0.716041 0.532069 0.966687
Cu 0.050046 0.599601 0.048845
Cu 0.299686 0.599628 0.049844
Cu 0.549207 0.599279 0.050609
Cu 0.799511 0.599628 0.049669
Cu 0.052208 0.599313 0.296639
Cu 0.300059 0.599548 0.299718
Cu 0.549312 0.599549 0.299724
Cu 0.800203 0.599297 0.296628
Cu 0.051664 0.598808 0.548196
Cu 0.299635 0.599631 0.549753
Cu 0.54915 0.598824 0.548385
Cu 0.803663 0.596425 0.541831
Cu 0.050424 0.599522 0.799564
Cu 0.298933 0.599529 0.799619
Cu 0.545616 0.598054 0.802148
Cu 0.801175 0.598367 0.801635
N 0.686449 0.673581 0.662196
N 0.79155 0.672935 0.669733
