data_none

_audit_creation_method generated by ABACUS

_cell_length_a 10.2106
_cell_length_b 30.2527
_cell_length_c 10.2106
_cell_angle_alpha 90
_cell_angle_beta 60
_cell_angle_gamma 90

loop_
_atom_site_label
_atom_site_fract_x
_atom_site_fract_y
_atom_site_fract_z
Cu 0.05 0.396659 0.05
Cu 0.3 0.396659 0.05
Cu 0.55 0.396659 0.05
Cu 0.8 0.396659 0.05
Cu 0.05 0.396659 0.3
Cu 0.3 0.396659 0.3
Cu 0.55 0.396659 0.3
Cu 0.8 0.396659 0.3
Cu 0.05 0.396659 0.55
Cu 0.3 0.396659 0.55
Cu 0.55 0.396659 0.55
Cu 0.8 0.396659 0.55
Cu 0.05 0.396659 0.8
Cu 0.3 0.396659 0.8
Cu 0.55 0.396659 0.8
Cu 0.8 0.396659 0.8
Cu 0.133333 0.465553 0.133333
Cu 0.383333 0.465553 0.133333
Cu 0.633333 0.465553 0.133333
Cu 0.883333 0.465553 0.133333
Cu 0.133333 0.465553 0.383333
Cu 0.383333 0.465553 0.383333
Cu 0.633333 0.465553 0.383333
Cu 0.883333 0.465553 0.383333
Cu 0.133333 0.465553 0.633333
Cu 0.383333 0.465553 0.633333
Cu 0.633333 0.465553 0.633333
Cu 0.883333 0.465553 0.633333
Cu 0.133333 0.465553 0.883333
Cu 0.383333 0.465553 0.883333
Cu 0.633333 0.465553 0.883333
Cu 0.883333 0.465553 0.883333
Cu 0.966663 0.532359 0.216284
Cu 0.216913 0.532333 0.216153
Cu 0.466509 0.532361 0.216604
Cu 0.716544 0.532335 0.216036
Cu 0.967883 0.53195 0.46563
Cu 0.217249 0.532277 0.466116
Cu 0.466222 0.532275 0.466061
Cu 0.716063 0.531964 0.465655
Cu 0.967047 0.5322 0.716112
Cu 0.216519 0.532355 0.716432
Cu 0.466274 0.532116 0.716034
Cu 0.716606 0.531998 0.716477
Cu 0.966544 0.532449 0.966406
Cu 0.216613 0.532437 0.966439
Cu 0.466235 0.532085 0.967172
Cu 0.716316 0.532194 0.966808
Cu 0.049936 0.599684 0.049307
Cu 0.299862 0.599776 0.049639
Cu 0.549853 0.599569 0.049528
Cu 0.799779 0.599774 0.049444
Cu 0.050627 0.599655 0.298638
Cu 0.300076 0.599695 0.299445
Cu 0.549822 0.5997 0.299443
Cu 0.80001 0.599631 0.298606
Cu 0.05064 0.599223 0.548893
Cu 0.299895 0.599748 0.549491
Cu 0.549673 0.599194 0.549075
Cu 0.801427 0.59756 0.546634
Cu 0.050135 0.599698 0.799391
Cu 0.299628 0.599705 0.79946
Cu 0.547928 0.598299 0.800739
Cu 0.80052 0.598755 0.80018
N 0.683312 0.687723 0.658212
N 0.780509 0.68623 0.677542
