data_none

_audit_creation_method generated by ABACUS

_cell_length_a 11.1874
_cell_length_b 18.8509
_cell_length_c 11.1874
_cell_angle_alpha 90
_cell_angle_beta 120
_cell_angle_gamma 90

loop_
_atom_site_label
_atom_site_fract_x
_atom_site_fract_y
_atom_site_fract_z
C 0.386783 0.399261 0.697303
O 0.420945 0.442468 0.505015
Pt 0.044552 0 0.022276
Pt 0.294552 0 0.022276
Pt 0.544552 0 0.022276
Pt 0.794552 0 0.022276
Pt 0.044552 0 0.272276
Pt 0.294552 0 0.272276
Pt 0.544552 0 0.272276
Pt 0.794552 0 0.272276
Pt 0.294552 0 0.522276
Pt 0.544552 0 0.522276
Pt 0.794552 0 0.522276
Pt 0.044552 0 0.522276
Pt 0.044552 0 0.772276
Pt 0.294552 0 0.772276
Pt 0.544552 0 0.772276
Pt 0.794552 0 0.772276
Pt 0.878371 0.120045 0.188599
Pt 0.877551 0.120512 0.438119
Pt 0.879298 0.119949 0.938202
Pt 0.62748 0.12049 0.188091
Pt 0.379078 0.120076 0.189723
Pt 0.129313 0.120159 0.188817
Pt 0.876892 0.121142 0.686723
Pt 0.128287 0.120753 0.937483
Pt 0.62725 0.121867 0.439263
Pt 0.377279 0.121143 0.937494
Pt 0.129194 0.120758 0.439754
Pt 0.627558 0.12045 0.937525
Pt 0.627902 0.121687 0.688358
Pt 0.128017 0.121671 0.688001
Pt 0.378293 0.121657 0.439619
Pt 0.37778 0.122601 0.688403
Pt 0.962055 0.238002 0.853407
Pt 0.962535 0.237401 0.104327
Pt 0.96071 0.238017 0.355073
Pt 0.461227 0.238693 0.105952
Pt 0.711648 0.238278 0.10546
Pt 0.710582 0.239197 0.355515
Pt 0.95947 0.23932 0.603969
Pt 0.212373 0.237708 0.103856
Pt 0.460819 0.240978 0.357307
Pt 0.212305 0.241168 0.852284
Pt 0.712825 0.238986 0.856239
Pt 0.706416 0.243254 0.603662
Pt 0.210774 0.239658 0.356003
Pt 0.461176 0.241165 0.855375
Pt 0.461566 0.242728 0.606052
Pt 0.213108 0.243297 0.604161
Pt 0.039925 0.358151 0.268331
Pt 0.544881 0.35957 0.275255
Pt 0.038859 0.358893 0.519445
Pt 0.548364 0.358889 0.030068
Pt 0.044993 0.359192 0.020709
Pt 0.794097 0.359665 0.273936
Pt 0.296199 0.360524 0.024691
Pt 0.804733 0.360807 0.779392
Pt 0.801169 0.359442 0.029488
Pt 0.79524 0.36113 0.523389
Pt 0.043203 0.360555 0.771913
Pt 0.289198 0.357881 0.261975
Pt 0.559839 0.369988 0.536586
Pt 0.56709 0.361523 0.789643
Pt 0.286616 0.367973 0.780861
Pt 0.285075 0.367559 0.506359
