data_none

_audit_creation_method generated by ABACUS

_cell_length_a 11.5352
_cell_length_b 19.0638
_cell_length_c 11.5352
_cell_angle_alpha 90
_cell_angle_beta 120
_cell_angle_gamma 90

loop_
_atom_site_label
_atom_site_fract_x
_atom_site_fract_y
_atom_site_fract_z
H 0.606481 0.525634 0.709289
H 0.372703 0.526623 0.477818
Au 0.04 0.1 0.04
Au 0.29 0.1 0.04
Au 0.54 0.1 0.04
Au 0.79 0.1 0.04
Au 0.04 0.1 0.29
Au 0.29 0.1 0.29
Au 0.54 0.1 0.29
Au 0.79 0.1 0.29
Au 0.04 0.1 0.54
Au 0.29 0.1 0.54
Au 0.54 0.1 0.54
Au 0.79 0.1 0.54
Au 0.04 0.1 0.79
Au 0.29 0.1 0.79
Au 0.54 0.1 0.79
Au 0.79 0.1 0.79
Au 0.123333 0.223512 0.206667
Au 0.373333 0.223512 0.206667
Au 0.623333 0.223512 0.206667
Au 0.873333 0.223512 0.206667
Au 0.123333 0.223512 0.456667
Au 0.373333 0.223512 0.456667
Au 0.623333 0.223512 0.456667
Au 0.873333 0.223512 0.456667
Au 0.123333 0.223512 0.706667
Au 0.373333 0.223512 0.706667
Au 0.623333 0.223512 0.706667
Au 0.873333 0.223512 0.706667
Au 0.123333 0.223512 0.956667
Au 0.373333 0.223512 0.956667
Au 0.623333 0.223512 0.956667
Au 0.873333 0.223512 0.956667
Au 0.208988 0.347013 0.126273
Au 0.456066 0.346156 0.124179
Au 0.706205 0.346907 0.123824
Au 0.956944 0.346765 0.123118
Au 0.206655 0.347803 0.37321
Au 0.457277 0.34961 0.378512
Au 0.70603 0.34689 0.374193
Au 0.956449 0.34691 0.374061
Au 0.207993 0.348162 0.622535
Au 0.456339 0.349406 0.623809
Au 0.701593 0.34967 0.622922
Au 0.955959 0.346183 0.624137
Au 0.206309 0.345654 0.873815
Au 0.457592 0.348099 0.872213
Au 0.706882 0.347827 0.873453
Au 0.953687 0.347116 0.871042
Au 0.040261 0.473396 0.039884
Au 0.28911 0.472877 0.04107
Au 0.538793 0.472871 0.044164
Au 0.791483 0.473036 0.043595
Au 0.036747 0.473056 0.288704
Au 0.286755 0.477556 0.28712
Au 0.538778 0.473349 0.292007
Au 0.7884 0.473345 0.291967
Au 0.03616 0.472852 0.541471
Au 0.281275 0.477569 0.541593
Au 0.540656 0.489346 0.538955
Au 0.78793 0.473329 0.541349
Au 0.038994 0.472894 0.790993
Au 0.287644 0.473357 0.792649
Au 0.5386 0.477476 0.799119
Au 0.793027 0.477933 0.793538
