data_none

_audit_creation_method generated by ABACUS

_cell_length_a 11.5352
_cell_length_b 19.0638
_cell_length_c 11.5352
_cell_angle_alpha 90
_cell_angle_beta 120
_cell_angle_gamma 90

loop_
_atom_site_label
_atom_site_fract_x
_atom_site_fract_y
_atom_site_fract_z
H 0.501582 0.599866 0.646035
H 0.436568 0.60164 0.580403
Au 0.04 0.1 0.04
Au 0.29 0.1 0.04
Au 0.54 0.1 0.04
Au 0.79 0.1 0.04
Au 0.04 0.1 0.29
Au 0.29 0.1 0.29
Au 0.54 0.1 0.29
Au 0.79 0.1 0.29
Au 0.04 0.1 0.54
Au 0.29 0.1 0.54
Au 0.54 0.1 0.54
Au 0.79 0.1 0.54
Au 0.04 0.1 0.79
Au 0.29 0.1 0.79
Au 0.54 0.1 0.79
Au 0.79 0.1 0.79
Au 0.123333 0.223512 0.206667
Au 0.373333 0.223512 0.206667
Au 0.623333 0.223512 0.206667
Au 0.873333 0.223512 0.206667
Au 0.123333 0.223512 0.456667
Au 0.373333 0.223512 0.456667
Au 0.623333 0.223512 0.456667
Au 0.873333 0.223512 0.456667
Au 0.123333 0.223512 0.706667
Au 0.373333 0.223512 0.706667
Au 0.623333 0.223512 0.706667
Au 0.873333 0.223512 0.706667
Au 0.123333 0.223512 0.956667
Au 0.373333 0.223512 0.956667
Au 0.623333 0.223512 0.956667
Au 0.873333 0.223512 0.956667
Au 0.206163 0.347522 0.121811
Au 0.457578 0.347621 0.123558
Au 0.706769 0.347579 0.123409
Au 0.956392 0.347692 0.123738
Au 0.205624 0.346606 0.371227
Au 0.45553 0.34651 0.371335
Au 0.706582 0.347476 0.373529
Au 0.956744 0.347576 0.373369
Au 0.205984 0.346607 0.624051
Au 0.456693 0.345881 0.623465
Au 0.708791 0.346508 0.624602
Au 0.956558 0.347621 0.622531
Au 0.206489 0.347632 0.87364
Au 0.456131 0.346609 0.874198
Au 0.7089 0.346601 0.874531
Au 0.958291 0.347516 0.873953
Au 0.040591 0.475481 0.039717
Au 0.290219 0.475428 0.039599
Au 0.540397 0.475264 0.04093
Au 0.791289 0.47534 0.040924
Au 0.039359 0.47533 0.289012
Au 0.289931 0.47414 0.289659
Au 0.540036 0.475074 0.289237
Au 0.790158 0.475005 0.290145
Au 0.039376 0.475246 0.539917
Au 0.287139 0.470134 0.53829
Au 0.541607 0.469295 0.538614
Au 0.791049 0.475077 0.540262
Au 0.040721 0.475418 0.79011
Au 0.290685 0.474374 0.789616
Au 0.542003 0.470142 0.793162
Au 0.790617 0.474126 0.790331
