data_none

_audit_creation_method generated by ABACUS

_cell_length_a 10.2106
_cell_length_b 30.2527
_cell_length_c 10.2106
_cell_angle_alpha 90
_cell_angle_beta 60
_cell_angle_gamma 90

loop_
_atom_site_label
_atom_site_fract_x
_atom_site_fract_y
_atom_site_fract_z
Cu 0.05 0.396659 0.05
Cu 0.3 0.396659 0.05
Cu 0.55 0.396659 0.05
Cu 0.8 0.396659 0.05
Cu 0.05 0.396659 0.3
Cu 0.3 0.396659 0.3
Cu 0.55 0.396659 0.3
Cu 0.8 0.396659 0.3
Cu 0.05 0.396659 0.55
Cu 0.3 0.396659 0.55
Cu 0.55 0.396659 0.55
Cu 0.8 0.396659 0.55
Cu 0.05 0.396659 0.8
Cu 0.3 0.396659 0.8
Cu 0.55 0.396659 0.8
Cu 0.8 0.396659 0.8
Cu 0.133333 0.465553 0.133333
Cu 0.383333 0.465553 0.133333
Cu 0.633333 0.465553 0.133333
Cu 0.883333 0.465553 0.133333
Cu 0.133333 0.465553 0.383333
Cu 0.383333 0.465553 0.383333
Cu 0.633333 0.465553 0.383333
Cu 0.883333 0.465553 0.383333
Cu 0.133333 0.465553 0.633333
Cu 0.383333 0.465553 0.633333
Cu 0.633333 0.465553 0.633333
Cu 0.883333 0.465553 0.633333
Cu 0.133333 0.465553 0.883333
Cu 0.383333 0.465553 0.883333
Cu 0.633333 0.465553 0.883333
Cu 0.883333 0.465553 0.883333
Cu 0.965728 0.532561 0.217908
Cu 0.219182 0.531909 0.216206
Cu 0.464636 0.531915 0.220087
Cu 0.713948 0.531906 0.216213
Cu 0.969667 0.532174 0.464761
Cu 0.21345 0.533401 0.469818
Cu 0.466042 0.533414 0.46986
Cu 0.714912 0.532154 0.464758
Cu 0.965134 0.53362 0.7165
Cu 0.21587 0.532549 0.71761
Cu 0.467711 0.533621 0.716528
Cu 0.717333 0.533257 0.714735
Cu 0.965766 0.532496 0.967171
Cu 0.216453 0.532497 0.967174
Cu 0.468056 0.532797 0.965202
Cu 0.716108 0.5328 0.965201
Cu 0.050601 0.600242 0.047698
Cu 0.299386 0.599346 0.05145
Cu 0.544603 0.599095 0.059689
Cu 0.798098 0.599345 0.051419
Cu 0.058492 0.599103 0.289679
Cu 0.297682 0.599895 0.303867
Cu 0.547305 0.599893 0.303857
Cu 0.800724 0.599094 0.289671
Cu 0.045157 0.604813 0.550775
Cu 0.298472 0.600215 0.55186
Cu 0.552908 0.6048 0.550745
Cu 0.813249 0.598358 0.522379
Cu 0.050392 0.599843 0.801014
Cu 0.297459 0.599841 0.801001
Cu 0.543337 0.602618 0.812824
Cu 0.792685 0.602624 0.812801
N 0.653848 0.638343 0.643229
N 0.851629 0.638358 0.643231
