data_none

_audit_creation_method generated by ABACUS

_cell_length_a 11.5352
_cell_length_b 19.0638
_cell_length_c 11.5352
_cell_angle_alpha 90
_cell_angle_beta 120
_cell_angle_gamma 90

loop_
_atom_site_label
_atom_site_fract_x
_atom_site_fract_y
_atom_site_fract_z
H 0.515379 0.534099 0.660133
H 0.419944 0.534127 0.564754
Au 0.04 0.1 0.04
Au 0.29 0.1 0.04
Au 0.54 0.1 0.04
Au 0.79 0.1 0.04
Au 0.04 0.1 0.29
Au 0.29 0.1 0.29
Au 0.54 0.1 0.29
Au 0.79 0.1 0.29
Au 0.04 0.1 0.54
Au 0.29 0.1 0.54
Au 0.54 0.1 0.54
Au 0.79 0.1 0.54
Au 0.04 0.1 0.79
Au 0.29 0.1 0.79
Au 0.54 0.1 0.79
Au 0.79 0.1 0.79
Au 0.123333 0.223512 0.206667
Au 0.373333 0.223512 0.206667
Au 0.623333 0.223512 0.206667
Au 0.873333 0.223512 0.206667
Au 0.123333 0.223512 0.456667
Au 0.373333 0.223512 0.456667
Au 0.623333 0.223512 0.456667
Au 0.873333 0.223512 0.456667
Au 0.123333 0.223512 0.706667
Au 0.373333 0.223512 0.706667
Au 0.623333 0.223512 0.706667
Au 0.873333 0.223512 0.706667
Au 0.123333 0.223512 0.956667
Au 0.373333 0.223512 0.956667
Au 0.623333 0.223512 0.956667
Au 0.873333 0.223512 0.956667
Au 0.206713 0.346166 0.123452
Au 0.456525 0.34654 0.123853
Au 0.705913 0.347356 0.124246
Au 0.955875 0.347026 0.124095
Au 0.205888 0.347336 0.372788
Au 0.45581 0.34881 0.376359
Au 0.705546 0.346786 0.374418
Au 0.955708 0.347366 0.374049
Au 0.20782 0.348057 0.623455
Au 0.455927 0.349171 0.623985
Au 0.703591 0.348825 0.624133
Au 0.956112 0.346545 0.623435
Au 0.206534 0.346181 0.87343
Au 0.456472 0.348048 0.872101
Au 0.707137 0.347332 0.874037
Au 0.956496 0.346168 0.873252
Au 0.040054 0.474188 0.03982
Au 0.288828 0.473617 0.039514
Au 0.538665 0.474319 0.044348
Au 0.792896 0.475086 0.045139
Au 0.034759 0.475106 0.287002
Au 0.28534 0.474259 0.285636
Au 0.538052 0.47417 0.289985
Au 0.787972 0.473859 0.291872
Au 0.035517 0.474346 0.541151
Au 0.275414 0.475841 0.53187
Au 0.543001 0.480153 0.536762
Au 0.789835 0.47417 0.541786
Au 0.040294 0.473615 0.790973
Au 0.289565 0.474207 0.790247
Au 0.548015 0.47583 0.80453
Au 0.794212 0.474247 0.794537
