data_none

_audit_creation_method generated by ABACUS

_cell_length_a 10.862
_cell_length_b 10.862
_cell_length_c 10.862
_cell_angle_alpha 90
_cell_angle_beta 90
_cell_angle_gamma 90

loop_
_atom_site_label
_atom_site_fract_x
_atom_site_fract_y
_atom_site_fract_z
Li 0.565124 0.565127 0.565126
Si 0.128285 0.377049 0.128286
Si 0.127374 0.377604 0.627494
Si 0.126863 0.877861 0.126878
Si 0.126653 0.878519 0.627315
Si 0.627511 0.377603 0.127368
Si 0.631508 0.369951 0.631508
Si 0.62731 0.878521 0.126667
Si 0.626739 0.878317 0.626743
Si 0.003363 0.003347 0.252359
Si 0.001936 0.00193 0.753166
Si 0.00357 0.502921 0.251704
Si 0.002846 0.502738 0.752609
Si 0.502911 0.003544 0.251712
Si 0.502709 0.00284 0.752625
Si 0.503483 0.503479 0.25192
Si 0.498731 0.498702 0.76027
Si 0.128284 0.128291 0.377058
Si 0.126859 0.126877 0.877863
Si 0.127377 0.627485 0.377616
Si 0.12665 0.627299 0.87852
Si 0.627512 0.127382 0.377599
Si 0.62731 0.126677 0.878513
Si 0.631493 0.63152 0.369952
Si 0.626737 0.626742 0.878307
Si 0.003361 0.252362 0.003345
Si 0.00357 0.251707 0.502906
Si 0.001935 0.753174 0.001935
Si 0.002849 0.752619 0.502727
Si 0.502911 0.251705 0.003555
Si 0.503481 0.25191 0.503477
Si 0.502711 0.752621 0.002856
Si 0.498718 0.760266 0.498713
Si 0.379542 0.379522 0.379531
Si 0.373237 0.373231 0.880821
Si 0.373241 0.880813 0.373249
Si 0.378556 0.879351 0.87936
Si 0.880828 0.373228 0.373218
Si 0.879346 0.378568 0.879337
Si 0.879347 0.87935 0.378561
Si 0.876297 0.876319 0.876308
Si 0.252356 0.00335 0.003366
Si 0.25171 0.003547 0.502926
Si 0.251713 0.502923 0.003562
Si 0.25193 0.50348 0.503484
Si 0.753157 0.001932 0.001932
Si 0.752615 0.002837 0.502719
Si 0.752613 0.502735 0.002831
Si 0.760272 0.498715 0.498718
Si 0.377065 0.12829 0.128289
Si 0.37761 0.127386 0.627502
Si 0.377611 0.627486 0.127391
Si 0.369949 0.631506 0.631506
Si 0.877864 0.126874 0.126858
Si 0.878514 0.126675 0.627295
Si 0.878513 0.627299 0.126661
Si 0.878298 0.626741 0.626736
Si 0.25392 0.253898 0.253909
Si 0.250876 0.250873 0.751659
Si 0.250878 0.751654 0.250886
Si 0.249392 0.756995 0.757003
Si 0.751664 0.250871 0.250862
Si 0.756984 0.249404 0.756976
Si 0.756986 0.756994 0.249397
Si 0.75068 0.750699 0.750689
