data_none

_audit_creation_method generated by ABACUS

_cell_length_a 11.5352
_cell_length_b 19.0638
_cell_length_c 11.5352
_cell_angle_alpha 90
_cell_angle_beta 120
_cell_angle_gamma 90

loop_
_atom_site_label
_atom_site_fract_x
_atom_site_fract_y
_atom_site_fract_z
H 0.559376 0.531873 0.686834
H 0.394473 0.532027 0.522411
Au 0.04 0.1 0.04
Au 0.29 0.1 0.04
Au 0.54 0.1 0.04
Au 0.79 0.1 0.04
Au 0.04 0.1 0.29
Au 0.29 0.1 0.29
Au 0.54 0.1 0.29
Au 0.79 0.1 0.29
Au 0.04 0.1 0.54
Au 0.29 0.1 0.54
Au 0.54 0.1 0.54
Au 0.79 0.1 0.54
Au 0.04 0.1 0.79
Au 0.29 0.1 0.79
Au 0.54 0.1 0.79
Au 0.79 0.1 0.79
Au 0.123333 0.223512 0.206667
Au 0.373333 0.223512 0.206667
Au 0.623333 0.223512 0.206667
Au 0.873333 0.223512 0.206667
Au 0.123333 0.223512 0.456667
Au 0.373333 0.223512 0.456667
Au 0.623333 0.223512 0.456667
Au 0.873333 0.223512 0.456667
Au 0.123333 0.223512 0.706667
Au 0.373333 0.223512 0.706667
Au 0.623333 0.223512 0.706667
Au 0.873333 0.223512 0.706667
Au 0.123333 0.223512 0.956667
Au 0.373333 0.223512 0.956667
Au 0.623333 0.223512 0.956667
Au 0.873333 0.223512 0.956667
Au 0.20819 0.346404 0.124094
Au 0.456657 0.346465 0.12371
Au 0.706343 0.347295 0.123728
Au 0.956724 0.347197 0.123445
Au 0.206229 0.347423 0.37214
Au 0.457238 0.349532 0.377419
Au 0.70618 0.346963 0.373951
Au 0.956467 0.347295 0.373855
Au 0.208516 0.348449 0.622382
Au 0.456652 0.348596 0.623574
Au 0.702752 0.349554 0.622915
Au 0.956447 0.346472 0.623486
Au 0.207243 0.346032 0.872925
Au 0.457826 0.348447 0.871701
Au 0.708032 0.347432 0.873934
Au 0.956044 0.34642 0.871954
Au 0.041146 0.474132 0.039169
Au 0.290354 0.473482 0.039336
Au 0.539932 0.473592 0.043563
Au 0.793354 0.474525 0.044145
Au 0.036261 0.47453 0.287055
Au 0.286032 0.474868 0.283906
Au 0.539177 0.473903 0.291702
Au 0.788699 0.473734 0.291613
Au 0.036867 0.473581 0.540319
Au 0.279086 0.476924 0.534926
Au 0.54079 0.486682 0.539421
Au 0.788527 0.47389 0.541042
Au 0.04084 0.473473 0.7898
Au 0.2896 0.474111 0.790654
Au 0.545412 0.476978 0.801488
Au 0.796358 0.474901 0.794287
