data_none

_audit_creation_method generated by ABACUS

_cell_length_a 11.1874
_cell_length_b 18.8509
_cell_length_c 11.1874
_cell_angle_alpha 90
_cell_angle_beta 120
_cell_angle_gamma 90

loop_
_atom_site_label
_atom_site_fract_x
_atom_site_fract_y
_atom_site_fract_z
C 0.54578 0.443803 0.647368
O 0.545664 0.506446 0.647295
Pt 0.044552 0 0.022276
Pt 0.294552 0 0.022276
Pt 0.544552 0 0.022276
Pt 0.794552 0 0.022276
Pt 0.044552 0 0.272276
Pt 0.294552 0 0.272276
Pt 0.544552 0 0.272276
Pt 0.794552 0 0.272276
Pt 0.294552 0 0.522276
Pt 0.544552 0 0.522276
Pt 0.794552 0 0.522276
Pt 0.044552 0 0.522276
Pt 0.044552 0 0.772276
Pt 0.294552 0 0.772276
Pt 0.544552 0 0.772276
Pt 0.794552 0 0.772276
Pt 0.877512 0.120616 0.188414
Pt 0.877512 0.12062 0.438795
Pt 0.87706 0.120093 0.93833
Pt 0.627812 0.120605 0.188758
Pt 0.378126 0.120577 0.188613
Pt 0.127934 0.120467 0.188479
Pt 0.877062 0.120089 0.688481
Pt 0.128163 0.12055 0.938977
Pt 0.626969 0.121414 0.438786
Pt 0.378143 0.120574 0.939282
Pt 0.128099 0.120352 0.438904
Pt 0.626988 0.121422 0.937918
Pt 0.627177 0.12184 0.688463
Pt 0.127951 0.120471 0.689213
Pt 0.378042 0.121029 0.438568
Pt 0.378052 0.121031 0.689227
Pt 0.960665 0.238074 0.855113
Pt 0.960385 0.238637 0.104184
Pt 0.960291 0.238941 0.354884
Pt 0.461257 0.239123 0.105384
Pt 0.710428 0.239164 0.104829
Pt 0.710436 0.239152 0.355103
Pt 0.960412 0.238634 0.605735
Pt 0.211884 0.238636 0.105735
Pt 0.462055 0.241299 0.358528
Pt 0.21191 0.238642 0.855722
Pt 0.709573 0.240572 0.854268
Pt 0.709594 0.240555 0.604878
Pt 0.210036 0.23871 0.354496
Pt 0.462056 0.241323 0.853082
Pt 0.460269 0.241132 0.604928
Pt 0.210041 0.238719 0.605088
Pt 0.041773 0.359673 0.270287
Pt 0.543447 0.360183 0.271712
Pt 0.041778 0.359684 0.520836
Pt 0.543457 0.360228 0.02104
Pt 0.044558 0.35953 0.022232
Pt 0.792379 0.359945 0.270847
Pt 0.294229 0.359729 0.021798
Pt 0.800388 0.359091 0.774919
Pt 0.794399 0.359729 0.022391
Pt 0.794434 0.359697 0.521394
Pt 0.044577 0.359525 0.771744
Pt 0.291997 0.359678 0.269624
Pt 0.541426 0.367936 0.519068
Pt 0.541457 0.368029 0.771611
Pt 0.292048 0.359723 0.771764
Pt 0.28601 0.359036 0.517705
