data_none

_audit_creation_method generated by ABACUS

_cell_length_a 11.5352
_cell_length_b 19.0638
_cell_length_c 11.5352
_cell_angle_alpha 90
_cell_angle_beta 120
_cell_angle_gamma 90

loop_
_atom_site_label
_atom_site_fract_x
_atom_site_fract_y
_atom_site_fract_z
H 0.501967 0.560336 0.648148
H 0.434224 0.560252 0.579794
Au 0.04 0.1 0.04
Au 0.29 0.1 0.04
Au 0.54 0.1 0.04
Au 0.79 0.1 0.04
Au 0.04 0.1 0.29
Au 0.29 0.1 0.29
Au 0.54 0.1 0.29
Au 0.79 0.1 0.29
Au 0.04 0.1 0.54
Au 0.29 0.1 0.54
Au 0.54 0.1 0.54
Au 0.79 0.1 0.54
Au 0.04 0.1 0.79
Au 0.29 0.1 0.79
Au 0.54 0.1 0.79
Au 0.79 0.1 0.79
Au 0.123333 0.223512 0.206667
Au 0.373333 0.223512 0.206667
Au 0.623333 0.223512 0.206667
Au 0.873333 0.223512 0.206667
Au 0.123333 0.223512 0.456667
Au 0.373333 0.223512 0.456667
Au 0.623333 0.223512 0.456667
Au 0.873333 0.223512 0.456667
Au 0.123333 0.223512 0.706667
Au 0.373333 0.223512 0.706667
Au 0.623333 0.223512 0.706667
Au 0.873333 0.223512 0.706667
Au 0.123333 0.223512 0.956667
Au 0.373333 0.223512 0.956667
Au 0.623333 0.223512 0.956667
Au 0.873333 0.223512 0.956667
Au 0.206386 0.346896 0.121344
Au 0.457859 0.347144 0.123757
Au 0.706717 0.347422 0.123587
Au 0.956368 0.347423 0.123783
Au 0.205525 0.346414 0.370434
Au 0.455102 0.346931 0.372148
Au 0.706324 0.347145 0.373776
Au 0.956547 0.347412 0.373407
Au 0.20666 0.346535 0.62409
Au 0.456653 0.347258 0.623502
Au 0.707944 0.346961 0.624993
Au 0.956367 0.347146 0.62226
Au 0.206743 0.34705 0.873396
Au 0.456043 0.346531 0.8735
Au 0.709687 0.346415 0.874609
Au 0.958784 0.346875 0.873756
Au 0.041282 0.475142 0.038981
Au 0.290075 0.474835 0.038524
Au 0.540377 0.475226 0.042959
Au 0.793506 0.475691 0.043045
Au 0.037244 0.475702 0.286815
Au 0.288384 0.473964 0.287395
Au 0.539342 0.475137 0.28812
Au 0.78967 0.474318 0.290594
Au 0.037343 0.475198 0.539856
Au 0.2791 0.469067 0.533322
Au 0.544302 0.469429 0.535642
Au 0.792084 0.475127 0.540898
Au 0.041692 0.474821 0.790122
Au 0.291257 0.474109 0.788958
Au 0.546929 0.469042 0.801296
Au 0.792817 0.473898 0.791823
