data_none

_audit_creation_method generated by ABACUS

_cell_length_a 11.5352
_cell_length_b 19.0638
_cell_length_c 11.5352
_cell_angle_alpha 90
_cell_angle_beta 120
_cell_angle_gamma 90

loop_
_atom_site_label
_atom_site_fract_x
_atom_site_fract_y
_atom_site_fract_z
H 0.500378 0.592666 0.647357
H 0.435162 0.593894 0.581642
Au 0.04 0.1 0.04
Au 0.29 0.1 0.04
Au 0.54 0.1 0.04
Au 0.79 0.1 0.04
Au 0.04 0.1 0.29
Au 0.29 0.1 0.29
Au 0.54 0.1 0.29
Au 0.79 0.1 0.29
Au 0.04 0.1 0.54
Au 0.29 0.1 0.54
Au 0.54 0.1 0.54
Au 0.79 0.1 0.54
Au 0.04 0.1 0.79
Au 0.29 0.1 0.79
Au 0.54 0.1 0.79
Au 0.79 0.1 0.79
Au 0.123333 0.223512 0.206667
Au 0.373333 0.223512 0.206667
Au 0.623333 0.223512 0.206667
Au 0.873333 0.223512 0.206667
Au 0.123333 0.223512 0.456667
Au 0.373333 0.223512 0.456667
Au 0.623333 0.223512 0.456667
Au 0.873333 0.223512 0.456667
Au 0.123333 0.223512 0.706667
Au 0.373333 0.223512 0.706667
Au 0.623333 0.223512 0.706667
Au 0.873333 0.223512 0.706667
Au 0.123333 0.223512 0.956667
Au 0.373333 0.223512 0.956667
Au 0.623333 0.223512 0.956667
Au 0.873333 0.223512 0.956667
Au 0.20609 0.347515 0.121564
Au 0.457711 0.347607 0.123562
Au 0.706737 0.3476 0.12336
Au 0.95633 0.347724 0.123814
Au 0.205498 0.346485 0.370835
Au 0.455332 0.346442 0.371044
Au 0.706555 0.347473 0.373547
Au 0.956782 0.347608 0.373388
Au 0.205982 0.34651 0.624155
Au 0.456751 0.345907 0.623396
Au 0.709067 0.346438 0.624787
Au 0.956556 0.347608 0.622389
Au 0.206495 0.347624 0.873627
Au 0.456007 0.3465 0.874198
Au 0.709301 0.346465 0.874658
Au 0.958556 0.347504 0.874033
Au 0.040735 0.47557 0.03956
Au 0.290227 0.475446 0.039329
Au 0.54045 0.475389 0.041171
Au 0.791683 0.475489 0.041174
Au 0.039103 0.475502 0.288603
Au 0.289844 0.474129 0.289403
Au 0.539958 0.475182 0.288888
Au 0.790156 0.47493 0.290143
Au 0.039138 0.47538 0.539856
Au 0.286024 0.469433 0.537503
Au 0.542168 0.46869 0.538009
Au 0.791379 0.475173 0.540323
Au 0.040973 0.475441 0.790083
Au 0.290901 0.474399 0.789392
Au 0.542781 0.469397 0.79429
Au 0.790864 0.474085 0.790405
