data_none

_audit_creation_method generated by ABACUS

_cell_length_a 11.1874
_cell_length_b 18.8509
_cell_length_c 11.1874
_cell_angle_alpha 90
_cell_angle_beta 120
_cell_angle_gamma 90

loop_
_atom_site_label
_atom_site_fract_x
_atom_site_fract_y
_atom_site_fract_z
C 0.381606 0.402339 0.699589
O 0.38407 0.424616 0.429257
Pt 0.044552 0 0.022276
Pt 0.294552 0 0.022276
Pt 0.544552 0 0.022276
Pt 0.794552 0 0.022276
Pt 0.044552 0 0.272276
Pt 0.294552 0 0.272276
Pt 0.544552 0 0.272276
Pt 0.794552 0 0.272276
Pt 0.294552 0 0.522276
Pt 0.544552 0 0.522276
Pt 0.794552 0 0.522276
Pt 0.044552 0 0.522276
Pt 0.044552 0 0.772276
Pt 0.294552 0 0.772276
Pt 0.544552 0 0.772276
Pt 0.794552 0 0.772276
Pt 0.87805 0.120048 0.189358
Pt 0.878268 0.120292 0.439323
Pt 0.878167 0.12021 0.939365
Pt 0.62745 0.120358 0.188656
Pt 0.377926 0.120264 0.189427
Pt 0.128641 0.120578 0.189585
Pt 0.877859 0.120709 0.688764
Pt 0.127883 0.120599 0.939353
Pt 0.627376 0.120706 0.439405
Pt 0.377584 0.120717 0.938142
Pt 0.129529 0.120798 0.440115
Pt 0.627005 0.120855 0.937556
Pt 0.62741 0.121088 0.688828
Pt 0.128884 0.121238 0.689245
Pt 0.377884 0.1216 0.439735
Pt 0.377802 0.122652 0.688445
Pt 0.961573 0.237673 0.855923
Pt 0.960763 0.237726 0.10535
Pt 0.961329 0.237795 0.356071
Pt 0.460741 0.238253 0.105221
Pt 0.710929 0.23837 0.105046
Pt 0.711472 0.238371 0.356095
Pt 0.961209 0.238409 0.606155
Pt 0.212439 0.239569 0.10863
Pt 0.461034 0.239734 0.356546
Pt 0.211357 0.239764 0.854883
Pt 0.709842 0.240005 0.854744
Pt 0.70891 0.24054 0.604675
Pt 0.211891 0.241101 0.357835
Pt 0.460218 0.241382 0.854513
Pt 0.461195 0.242732 0.606032
Pt 0.212703 0.243129 0.605179
Pt 0.036925 0.35831 0.267266
Pt 0.546609 0.358316 0.271038
Pt 0.036279 0.358638 0.519347
Pt 0.54676 0.358969 0.02629
Pt 0.041701 0.359289 0.019997
Pt 0.793277 0.359324 0.27142
Pt 0.293543 0.359768 0.023582
Pt 0.80118 0.359908 0.775763
Pt 0.797249 0.359994 0.025118
Pt 0.796681 0.360103 0.521917
Pt 0.040623 0.360099 0.772178
Pt 0.28826 0.360909 0.258736
Pt 0.559001 0.362611 0.526556
Pt 0.56268 0.364928 0.782325
Pt 0.28444 0.36555 0.783767
Pt 0.28008 0.36854 0.512291
