data_none

_audit_creation_method generated by ABACUS

_cell_length_a 10.2106
_cell_length_b 30.2527
_cell_length_c 10.2106
_cell_angle_alpha 90
_cell_angle_beta 60
_cell_angle_gamma 90

loop_
_atom_site_label
_atom_site_fract_x
_atom_site_fract_y
_atom_site_fract_z
Cu 0.05 0.396659 0.05
Cu 0.3 0.396659 0.05
Cu 0.55 0.396659 0.05
Cu 0.8 0.396659 0.05
Cu 0.05 0.396659 0.3
Cu 0.3 0.396659 0.3
Cu 0.55 0.396659 0.3
Cu 0.8 0.396659 0.3
Cu 0.05 0.396659 0.55
Cu 0.3 0.396659 0.55
Cu 0.55 0.396659 0.55
Cu 0.8 0.396659 0.55
Cu 0.05 0.396659 0.8
Cu 0.3 0.396659 0.8
Cu 0.55 0.396659 0.8
Cu 0.8 0.396659 0.8
Cu 0.133333 0.465553 0.133333
Cu 0.383333 0.465553 0.133333
Cu 0.633333 0.465553 0.133333
Cu 0.883333 0.465553 0.133333
Cu 0.133333 0.465553 0.383333
Cu 0.383333 0.465553 0.383333
Cu 0.633333 0.465553 0.383333
Cu 0.883333 0.465553 0.383333
Cu 0.133333 0.465553 0.633333
Cu 0.383333 0.465553 0.633333
Cu 0.633333 0.465553 0.633333
Cu 0.883333 0.465553 0.633333
Cu 0.133333 0.465553 0.883333
Cu 0.383333 0.465553 0.883333
Cu 0.633333 0.465553 0.883333
Cu 0.883333 0.465553 0.883333
Cu 0.966698 0.532412 0.216592
Cu 0.216683 0.532414 0.216566
Cu 0.466651 0.532417 0.216668
Cu 0.716696 0.532413 0.216529
Cu 0.967084 0.532281 0.466379
Cu 0.216782 0.532409 0.46656
Cu 0.466568 0.532383 0.466497
Cu 0.716555 0.5323 0.466443
Cu 0.966777 0.532385 0.716558
Cu 0.216627 0.532419 0.71662
Cu 0.466538 0.532322 0.716517
Cu 0.716705 0.532251 0.716709
Cu 0.966678 0.53244 0.966612
Cu 0.216659 0.532424 0.966628
Cu 0.466463 0.532294 0.966973
Cu 0.716622 0.532378 0.966728
Cu 0.050001 0.599815 0.0499
Cu 0.300033 0.599843 0.049897
Cu 0.550036 0.599804 0.049803
Cu 0.799982 0.59984 0.049859
Cu 0.050031 0.599833 0.29988
Cu 0.30003 0.599808 0.299871
Cu 0.550043 0.599826 0.299868
Cu 0.80001 0.599813 0.299877
Cu 0.05001 0.599777 0.549856
Cu 0.300014 0.599833 0.549894
Cu 0.549997 0.599662 0.549851
Cu 0.800397 0.599133 0.549495
Cu 0.050001 0.599831 0.799863
Cu 0.30002 0.599825 0.799883
Cu 0.549636 0.599256 0.800261
Cu 0.800056 0.599646 0.79997
N 0.651065 0.705759 0.646405
N 0.737996 0.705265 0.680315
