data_none

_audit_creation_method generated by ABACUS

_cell_length_a 11.1874
_cell_length_b 18.8509
_cell_length_c 11.1874
_cell_angle_alpha 90
_cell_angle_beta 120
_cell_angle_gamma 90

loop_
_atom_site_label
_atom_site_fract_x
_atom_site_fract_y
_atom_site_fract_z
C 0.580411 0.440632 0.664796
O 0.596997 0.502838 0.673153
Pt 0.044552 0 0.022276
Pt 0.294552 0 0.022276
Pt 0.544552 0 0.022276
Pt 0.794552 0 0.022276
Pt 0.044552 0 0.272276
Pt 0.294552 0 0.272276
Pt 0.544552 0 0.272276
Pt 0.794552 0 0.272276
Pt 0.294552 0 0.522276
Pt 0.544552 0 0.522276
Pt 0.794552 0 0.522276
Pt 0.044552 0 0.522276
Pt 0.044552 0 0.772276
Pt 0.294552 0 0.772276
Pt 0.544552 0 0.772276
Pt 0.794552 0 0.772276
Pt 0.877601 0.120486 0.188464
Pt 0.877611 0.120485 0.438864
Pt 0.877246 0.120097 0.938346
Pt 0.627787 0.120485 0.18875
Pt 0.378083 0.120483 0.188605
Pt 0.128085 0.120397 0.188587
Pt 0.877257 0.120092 0.688622
Pt 0.128411 0.120426 0.939073
Pt 0.627048 0.121216 0.438823
Pt 0.378077 0.120473 0.93921
Pt 0.128129 0.120293 0.438935
Pt 0.627036 0.121213 0.937934
Pt 0.627349 0.121787 0.688533
Pt 0.128091 0.120387 0.689241
Pt 0.378173 0.120936 0.438686
Pt 0.378163 0.120928 0.689227
Pt 0.960688 0.23816 0.855088
Pt 0.960887 0.238468 0.104614
Pt 0.960592 0.238821 0.355044
Pt 0.461402 0.238871 0.105442
Pt 0.710595 0.238899 0.104943
Pt 0.710612 0.238895 0.355152
Pt 0.960909 0.238461 0.605778
Pt 0.21212 0.238552 0.105894
Pt 0.462387 0.241037 0.358687
Pt 0.21213 0.238553 0.855735
Pt 0.710259 0.240437 0.854546
Pt 0.710282 0.240433 0.605232
Pt 0.210468 0.238609 0.354787
Pt 0.462367 0.241038 0.853218
Pt 0.460802 0.241039 0.605173
Pt 0.210469 0.238608 0.60522
Pt 0.042828 0.359629 0.270963
Pt 0.543794 0.359989 0.271568
Pt 0.042835 0.359631 0.521203
Pt 0.5438 0.360013 0.021528
Pt 0.045098 0.359341 0.022508
Pt 0.793112 0.359757 0.271218
Pt 0.294511 0.359533 0.021912
Pt 0.801155 0.359907 0.775248
Pt 0.795452 0.359353 0.023801
Pt 0.795465 0.359342 0.520987
Pt 0.045105 0.359338 0.771913
Pt 0.292887 0.359661 0.270467
Pt 0.542152 0.367248 0.518586
Pt 0.54216 0.367246 0.772829
Pt 0.292913 0.359689 0.77176
Pt 0.287702 0.358935 0.518528
