data_none

_audit_creation_method generated by ABACUS

_cell_length_a 10.2106
_cell_length_b 30.2527
_cell_length_c 10.2106
_cell_angle_alpha 90
_cell_angle_beta 60
_cell_angle_gamma 90

loop_
_atom_site_label
_atom_site_fract_x
_atom_site_fract_y
_atom_site_fract_z
Cu 0.05 0.396659 0.05
Cu 0.3 0.396659 0.05
Cu 0.55 0.396659 0.05
Cu 0.8 0.396659 0.05
Cu 0.05 0.396659 0.3
Cu 0.3 0.396659 0.3
Cu 0.55 0.396659 0.3
Cu 0.8 0.396659 0.3
Cu 0.05 0.396659 0.55
Cu 0.3 0.396659 0.55
Cu 0.55 0.396659 0.55
Cu 0.8 0.396659 0.55
Cu 0.05 0.396659 0.8
Cu 0.3 0.396659 0.8
Cu 0.55 0.396659 0.8
Cu 0.8 0.396659 0.8
Cu 0.133333 0.465553 0.133333
Cu 0.383333 0.465553 0.133333
Cu 0.633333 0.465553 0.133333
Cu 0.883333 0.465553 0.133333
Cu 0.133333 0.465553 0.383333
Cu 0.383333 0.465553 0.383333
Cu 0.633333 0.465553 0.383333
Cu 0.883333 0.465553 0.383333
Cu 0.133333 0.465553 0.633333
Cu 0.383333 0.465553 0.633333
Cu 0.633333 0.465553 0.633333
Cu 0.883333 0.465553 0.633333
Cu 0.133333 0.465553 0.883333
Cu 0.383333 0.465553 0.883333
Cu 0.633333 0.465553 0.883333
Cu 0.883333 0.465553 0.883333
Cu 0.966442 0.532333 0.21691
Cu 0.216424 0.532327 0.216424
Cu 0.466521 0.532307 0.216411
Cu 0.716575 0.532302 0.216859
Cu 0.966894 0.532233 0.466739
Cu 0.216411 0.532307 0.466521
Cu 0.466724 0.532327 0.466724
Cu 0.716334 0.53223 0.466903
Cu 0.966886 0.532318 0.716741
Cu 0.216859 0.532302 0.716575
Cu 0.466903 0.53223 0.716334
Cu 0.717039 0.532157 0.717039
Cu 0.966879 0.532258 0.966879
Cu 0.21691 0.532333 0.966442
Cu 0.466739 0.532233 0.966894
Cu 0.716741 0.532318 0.966886
Cu 0.050335 0.599539 0.050335
Cu 0.299927 0.599774 0.050139
Cu 0.550263 0.599677 0.049835
Cu 0.80024 0.599581 0.050318
Cu 0.050139 0.599774 0.299927
Cu 0.299755 0.599636 0.299755
Cu 0.54985 0.599623 0.299808
Cu 0.799562 0.599704 0.300447
Cu 0.049835 0.599677 0.550263
Cu 0.299808 0.599623 0.54985
Cu 0.54991 0.599627 0.54991
Cu 0.799972 0.599188 0.550188
Cu 0.050318 0.599581 0.80024
Cu 0.300447 0.599704 0.799562
Cu 0.550188 0.599188 0.799972
Cu 0.800323 0.599681 0.800323
N 0.639005 0.712063 0.639005
N 0.701335 0.712482 0.701335
