data_none

_audit_creation_method generated by ABACUS

_cell_length_a 11.5352
_cell_length_b 19.0638
_cell_length_c 11.5352
_cell_angle_alpha 90
_cell_angle_beta 120
_cell_angle_gamma 90

loop_
_atom_site_label
_atom_site_fract_x
_atom_site_fract_y
_atom_site_fract_z
H 0.550816 0.532553 0.684209
H 0.397014 0.5326 0.53046
Au 0.04 0.1 0.04
Au 0.29 0.1 0.04
Au 0.54 0.1 0.04
Au 0.79 0.1 0.04
Au 0.04 0.1 0.29
Au 0.29 0.1 0.29
Au 0.54 0.1 0.29
Au 0.79 0.1 0.29
Au 0.04 0.1 0.54
Au 0.29 0.1 0.54
Au 0.54 0.1 0.54
Au 0.79 0.1 0.54
Au 0.04 0.1 0.79
Au 0.29 0.1 0.79
Au 0.54 0.1 0.79
Au 0.79 0.1 0.79
Au 0.123333 0.223512 0.206667
Au 0.373333 0.223512 0.206667
Au 0.623333 0.223512 0.206667
Au 0.873333 0.223512 0.206667
Au 0.123333 0.223512 0.456667
Au 0.373333 0.223512 0.456667
Au 0.623333 0.223512 0.456667
Au 0.873333 0.223512 0.456667
Au 0.123333 0.223512 0.706667
Au 0.373333 0.223512 0.706667
Au 0.623333 0.223512 0.706667
Au 0.873333 0.223512 0.706667
Au 0.123333 0.223512 0.956667
Au 0.373333 0.223512 0.956667
Au 0.623333 0.223512 0.956667
Au 0.873333 0.223512 0.956667
Au 0.208005 0.346248 0.123742
Au 0.45675 0.346415 0.123714
Au 0.706417 0.347224 0.123724
Au 0.956733 0.347128 0.123436
Au 0.206137 0.347272 0.371962
Au 0.457175 0.349317 0.37715
Au 0.706222 0.346813 0.373894
Au 0.956441 0.347208 0.373752
Au 0.208437 0.348345 0.622345
Au 0.456631 0.348199 0.623573
Au 0.702996 0.349339 0.622954
Au 0.95645 0.346417 0.62338
Au 0.207365 0.345941 0.872797
Au 0.457834 0.34836 0.871769
Au 0.708184 0.347276 0.874017
Au 0.956413 0.346244 0.872149
Au 0.041325 0.474142 0.03899
Au 0.290429 0.473451 0.03921
Au 0.540154 0.473556 0.043789
Au 0.793637 0.474557 0.044385
Au 0.036022 0.474571 0.286765
Au 0.286086 0.474436 0.283811
Au 0.539284 0.473802 0.291864
Au 0.788703 0.473767 0.291604
Au 0.036626 0.473552 0.540075
Au 0.278544 0.476569 0.533817
Au 0.540318 0.485412 0.539959
Au 0.788416 0.473785 0.540951
Au 0.040954 0.473429 0.789704
Au 0.28977 0.473888 0.790473
Au 0.546495 0.476592 0.802022
Au 0.796462 0.474408 0.794241
