data_none

_audit_creation_method generated by ABACUS

_cell_length_a 10.862
_cell_length_b 10.862
_cell_length_c 10.862
_cell_angle_alpha 90
_cell_angle_beta 90
_cell_angle_gamma 90

loop_
_atom_site_label
_atom_site_fract_x
_atom_site_fract_y
_atom_site_fract_z
Li 0.533822 0.533818 0.533815
Si 0.128475 0.377403 0.12847
Si 0.127894 0.377651 0.627817
Si 0.127274 0.877886 0.127275
Si 0.126874 0.878953 0.627131
Si 0.627823 0.377655 0.127884
Si 0.633775 0.371129 0.633771
Si 0.627128 0.878956 0.126867
Si 0.627761 0.878621 0.627756
Si 0.003612 0.003621 0.252411
Si 0.002233 0.002242 0.753245
Si 0.003556 0.502671 0.252451
Si 0.003059 0.502746 0.752646
Si 0.502666 0.003558 0.25246
Si 0.502743 0.003058 0.752658
Si 0.504432 0.504425 0.252768
Si 0.501081 0.501072 0.758298
Si 0.128475 0.128471 0.377408
Si 0.127275 0.127265 0.877887
Si 0.127895 0.627819 0.377659
Si 0.126872 0.627122 0.878955
Si 0.627821 0.127898 0.377649
Si 0.627129 0.126869 0.878948
Si 0.633769 0.633794 0.371126
Si 0.62776 0.627764 0.878612
Si 0.003613 0.252414 0.003608
Si 0.003551 0.252458 0.502661
Si 0.002236 0.75325 0.002235
Si 0.00306 0.752657 0.502744
Si 0.502666 0.252446 0.003561
Si 0.504426 0.252762 0.504435
Si 0.502743 0.752647 0.003071
Si 0.501075 0.758289 0.501093
Si 0.379377 0.379374 0.379377
Si 0.374971 0.374961 0.879452
Si 0.374971 0.879448 0.374974
Si 0.378681 0.879635 0.879645
Si 0.879456 0.37498 0.374963
Si 0.879647 0.378682 0.879634
Si 0.879646 0.879647 0.378672
Si 0.876839 0.876836 0.876827
Si 0.252402 0.003609 0.003617
Si 0.252445 0.003555 0.502671
Si 0.252448 0.502657 0.003559
Si 0.252769 0.504423 0.504435
Si 0.753244 0.002241 0.002237
Si 0.75265 0.00307 0.502742
Si 0.752655 0.502746 0.003061
Si 0.758294 0.501084 0.50108
Si 0.377407 0.128464 0.128471
Si 0.377651 0.127882 0.627822
Si 0.377648 0.627816 0.127894
Si 0.371124 0.633763 0.633783
Si 0.877898 0.127276 0.127267
Si 0.87896 0.126873 0.62712
Si 0.878958 0.627135 0.126866
Si 0.878616 0.627766 0.627752
Si 0.253884 0.253886 0.253893
Si 0.251563 0.251566 0.752251
Si 0.251563 0.752243 0.251581
Si 0.248632 0.758031 0.758045
Si 0.752247 0.251577 0.251571
Si 0.75804 0.248637 0.758036
Si 0.758041 0.758049 0.248632
Si 0.751711 0.751713 0.751709
