data_none

_audit_creation_method generated by ABACUS

_cell_length_a 10.2106
_cell_length_b 30.2527
_cell_length_c 10.2106
_cell_angle_alpha 90
_cell_angle_beta 60
_cell_angle_gamma 90

loop_
_atom_site_label
_atom_site_fract_x
_atom_site_fract_y
_atom_site_fract_z
Cu 0.05 0.396659 0.05
Cu 0.3 0.396659 0.05
Cu 0.55 0.396659 0.05
Cu 0.8 0.396659 0.05
Cu 0.05 0.396659 0.3
Cu 0.3 0.396659 0.3
Cu 0.55 0.396659 0.3
Cu 0.8 0.396659 0.3
Cu 0.05 0.396659 0.55
Cu 0.3 0.396659 0.55
Cu 0.55 0.396659 0.55
Cu 0.8 0.396659 0.55
Cu 0.05 0.396659 0.8
Cu 0.3 0.396659 0.8
Cu 0.55 0.396659 0.8
Cu 0.8 0.396659 0.8
Cu 0.133333 0.465553 0.133333
Cu 0.383333 0.465553 0.133333
Cu 0.633333 0.465553 0.133333
Cu 0.883333 0.465553 0.133333
Cu 0.133333 0.465553 0.383333
Cu 0.383333 0.465553 0.383333
Cu 0.633333 0.465553 0.383333
Cu 0.883333 0.465553 0.383333
Cu 0.133333 0.465553 0.633333
Cu 0.383333 0.465553 0.633333
Cu 0.633333 0.465553 0.633333
Cu 0.883333 0.465553 0.633333
Cu 0.133333 0.465553 0.883333
Cu 0.383333 0.465553 0.883333
Cu 0.633333 0.465553 0.883333
Cu 0.883333 0.465553 0.883333
Cu 0.966581 0.532438 0.216252
Cu 0.218805 0.532105 0.215476
Cu 0.465633 0.532173 0.218132
Cu 0.715103 0.532109 0.215451
Cu 0.969754 0.531715 0.464809
Cu 0.216576 0.532561 0.46745
Cu 0.465359 0.532575 0.467465
Cu 0.714803 0.531703 0.464797
Cu 0.965895 0.532856 0.716124
Cu 0.216154 0.53241 0.717075
Cu 0.467354 0.532834 0.716099
Cu 0.717111 0.532778 0.715177
Cu 0.966111 0.532531 0.966897
Cu 0.216405 0.532527 0.966907
Cu 0.46793 0.532586 0.965537
Cu 0.715963 0.532616 0.965456
Cu 0.050445 0.60005 0.048031
Cu 0.299888 0.599865 0.050098
Cu 0.547314 0.599472 0.054318
Cu 0.799 0.599861 0.050008
Cu 0.056158 0.599369 0.292268
Cu 0.299461 0.599937 0.301235
Cu 0.548258 0.599936 0.30125
Cu 0.80056 0.599356 0.29227
Cu 0.052259 0.599859 0.547729
Cu 0.29899 0.600161 0.550932
Cu 0.548977 0.599873 0.547826
Cu 0.809711 0.595747 0.529651
Cu 0.050724 0.599853 0.800198
Cu 0.297989 0.599853 0.800221
Cu 0.542824 0.599868 0.805188
Cu 0.800878 0.599983 0.804981
N 0.685759 0.655691 0.662913
N 0.797512 0.6556 0.664817
