data_none

_audit_creation_method generated by ABACUS

_cell_length_a 11.5352
_cell_length_b 19.0638
_cell_length_c 11.5352
_cell_angle_alpha 90
_cell_angle_beta 120
_cell_angle_gamma 90

loop_
_atom_site_label
_atom_site_fract_x
_atom_site_fract_y
_atom_site_fract_z
H 0.556718 0.532405 0.686794
H 0.393832 0.532545 0.524434
Au 0.04 0.1 0.04
Au 0.29 0.1 0.04
Au 0.54 0.1 0.04
Au 0.79 0.1 0.04
Au 0.04 0.1 0.29
Au 0.29 0.1 0.29
Au 0.54 0.1 0.29
Au 0.79 0.1 0.29
Au 0.04 0.1 0.54
Au 0.29 0.1 0.54
Au 0.54 0.1 0.54
Au 0.79 0.1 0.54
Au 0.04 0.1 0.79
Au 0.29 0.1 0.79
Au 0.54 0.1 0.79
Au 0.79 0.1 0.79
Au 0.123333 0.223512 0.206667
Au 0.373333 0.223512 0.206667
Au 0.623333 0.223512 0.206667
Au 0.873333 0.223512 0.206667
Au 0.123333 0.223512 0.456667
Au 0.373333 0.223512 0.456667
Au 0.623333 0.223512 0.456667
Au 0.873333 0.223512 0.456667
Au 0.123333 0.223512 0.706667
Au 0.373333 0.223512 0.706667
Au 0.623333 0.223512 0.706667
Au 0.873333 0.223512 0.706667
Au 0.123333 0.223512 0.956667
Au 0.373333 0.223512 0.956667
Au 0.623333 0.223512 0.956667
Au 0.873333 0.223512 0.956667
Au 0.207949 0.346392 0.124352
Au 0.456284 0.34652 0.123788
Au 0.706149 0.347369 0.123955
Au 0.956566 0.347236 0.123528
Au 0.205956 0.347474 0.372469
Au 0.457106 0.349499 0.377657
Au 0.70615 0.346948 0.373961
Au 0.956167 0.347375 0.373969
Au 0.208235 0.348627 0.622488
Au 0.456318 0.348648 0.623787
Au 0.702463 0.349513 0.623016
Au 0.956326 0.346531 0.623816
Au 0.206948 0.346041 0.873152
Au 0.457593 0.348611 0.871877
Au 0.707622 0.347463 0.874145
Au 0.955749 0.346407 0.872142
Au 0.040651 0.474358 0.039541
Au 0.289882 0.473675 0.039802
Au 0.539504 0.473727 0.04392
Au 0.79287 0.474559 0.044456
Au 0.035748 0.47456 0.287328
Au 0.285794 0.474682 0.284285
Au 0.538975 0.473882 0.292239
Au 0.788265 0.47416 0.291877
Au 0.036269 0.473745 0.540615
Au 0.278211 0.477289 0.535047
Au 0.539859 0.486369 0.540155
Au 0.787884 0.473883 0.541165
Au 0.040303 0.473687 0.790208
Au 0.289006 0.473993 0.791129
Au 0.545139 0.477263 0.802065
Au 0.795875 0.474694 0.794408
