data_none

_audit_creation_method generated by ABACUS

_cell_length_a 11.5352
_cell_length_b 19.0638
_cell_length_c 11.5352
_cell_angle_alpha 90
_cell_angle_beta 120
_cell_angle_gamma 90

loop_
_atom_site_label
_atom_site_fract_x
_atom_site_fract_y
_atom_site_fract_z
H 0.516152 0.533856 0.659773
H 0.420784 0.533858 0.564499
Au 0.04 0.1 0.04
Au 0.29 0.1 0.04
Au 0.54 0.1 0.04
Au 0.79 0.1 0.04
Au 0.04 0.1 0.29
Au 0.29 0.1 0.29
Au 0.54 0.1 0.29
Au 0.79 0.1 0.29
Au 0.04 0.1 0.54
Au 0.29 0.1 0.54
Au 0.54 0.1 0.54
Au 0.79 0.1 0.54
Au 0.04 0.1 0.79
Au 0.29 0.1 0.79
Au 0.54 0.1 0.79
Au 0.79 0.1 0.79
Au 0.123333 0.223512 0.206667
Au 0.373333 0.223512 0.206667
Au 0.623333 0.223512 0.206667
Au 0.873333 0.223512 0.206667
Au 0.123333 0.223512 0.456667
Au 0.373333 0.223512 0.456667
Au 0.623333 0.223512 0.456667
Au 0.873333 0.223512 0.456667
Au 0.123333 0.223512 0.706667
Au 0.373333 0.223512 0.706667
Au 0.623333 0.223512 0.706667
Au 0.873333 0.223512 0.706667
Au 0.123333 0.223512 0.956667
Au 0.373333 0.223512 0.956667
Au 0.623333 0.223512 0.956667
Au 0.873333 0.223512 0.956667
Au 0.207082 0.346212 0.123191
Au 0.456877 0.346555 0.123556
Au 0.706319 0.347379 0.124017
Au 0.956265 0.347051 0.123832
Au 0.206357 0.347414 0.372517
Au 0.456224 0.348871 0.376091
Au 0.705931 0.346836 0.374169
Au 0.956079 0.347384 0.373769
Au 0.2083 0.34811 0.623119
Au 0.456385 0.349409 0.623717
Au 0.704028 0.34888 0.62388
Au 0.956556 0.346562 0.623218
Au 0.207019 0.346194 0.873085
Au 0.456959 0.348099 0.871801
Au 0.707574 0.347407 0.873732
Au 0.95695 0.346211 0.87304
Au 0.040968 0.474275 0.039247
Au 0.289675 0.473689 0.038958
Au 0.539551 0.474402 0.044049
Au 0.793864 0.475184 0.044786
Au 0.035404 0.475196 0.28633
Au 0.286146 0.474418 0.28512
Au 0.538824 0.474279 0.289436
Au 0.788738 0.474006 0.291395
Au 0.036124 0.474414 0.540563
Au 0.275734 0.476009 0.53115
Au 0.543948 0.480323 0.536123
Au 0.790711 0.474282 0.541325
Au 0.041191 0.473695 0.790453
Au 0.290415 0.474326 0.789713
Au 0.549043 0.475984 0.804533
Au 0.795081 0.474388 0.794057
