data_none

_audit_creation_method generated by ABACUS

_cell_length_a 10.2106
_cell_length_b 30.2527
_cell_length_c 10.2106
_cell_angle_alpha 90
_cell_angle_beta 60
_cell_angle_gamma 90

loop_
_atom_site_label
_atom_site_fract_x
_atom_site_fract_y
_atom_site_fract_z
Cu 0.05 0.396659 0.05
Cu 0.3 0.396659 0.05
Cu 0.55 0.396659 0.05
Cu 0.8 0.396659 0.05
Cu 0.05 0.396659 0.3
Cu 0.3 0.396659 0.3
Cu 0.55 0.396659 0.3
Cu 0.8 0.396659 0.3
Cu 0.05 0.396659 0.55
Cu 0.3 0.396659 0.55
Cu 0.55 0.396659 0.55
Cu 0.8 0.396659 0.55
Cu 0.05 0.396659 0.8
Cu 0.3 0.396659 0.8
Cu 0.55 0.396659 0.8
Cu 0.8 0.396659 0.8
Cu 0.133333 0.465553 0.133333
Cu 0.383333 0.465553 0.133333
Cu 0.633333 0.465553 0.133333
Cu 0.883333 0.465553 0.133333
Cu 0.133333 0.465553 0.383333
Cu 0.383333 0.465553 0.383333
Cu 0.633333 0.465553 0.383333
Cu 0.883333 0.465553 0.383333
Cu 0.133333 0.465553 0.633333
Cu 0.383333 0.465553 0.633333
Cu 0.633333 0.465553 0.633333
Cu 0.883333 0.465553 0.633333
Cu 0.133333 0.465553 0.883333
Cu 0.383333 0.465553 0.883333
Cu 0.633333 0.465553 0.883333
Cu 0.883333 0.465553 0.883333
Cu 0.966499 0.532187 0.216086
Cu 0.215665 0.53214 0.216967
Cu 0.466371 0.53131 0.216344
Cu 0.716454 0.532142 0.216938
Cu 0.963458 0.533755 0.467849
Cu 0.216474 0.531965 0.465244
Cu 0.467359 0.531964 0.465191
Cu 0.717768 0.533782 0.467793
Cu 0.965647 0.533091 0.715728
Cu 0.216649 0.532771 0.715864
Cu 0.467768 0.533092 0.715661
Cu 0.71674 0.534433 0.715573
Cu 0.96717 0.532494 0.964899
Cu 0.217133 0.532498 0.964881
Cu 0.467116 0.532612 0.965145
Cu 0.716868 0.532616 0.965135
Cu 0.050752 0.599877 0.047122
Cu 0.296483 0.599348 0.052236
Cu 0.547715 0.598857 0.053129
Cu 0.799924 0.599343 0.052102
Cu 0.050872 0.599358 0.294477
Cu 0.303346 0.598895 0.295045
Cu 0.55015 0.5989 0.294981
Cu 0.803219 0.599374 0.294298
Cu 0.063716 0.600734 0.53754
Cu 0.301484 0.599042 0.545547
Cu 0.547199 0.600754 0.537408
Cu 0.800543 0.611284 0.546903
Cu 0.05175 0.600469 0.798296
Cu 0.298573 0.600489 0.798239
Cu 0.540635 0.602451 0.813254
Cu 0.794748 0.602499 0.812935
N 0.603968 0.636757 0.642834
N 0.901349 0.63671 0.642565
