data_none

_audit_creation_method generated by ABACUS

_cell_length_a 11.5352
_cell_length_b 19.0638
_cell_length_c 11.5352
_cell_angle_alpha 90
_cell_angle_beta 120
_cell_angle_gamma 90

loop_
_atom_site_label
_atom_site_fract_x
_atom_site_fract_y
_atom_site_fract_z
H 0.611135 0.522933 0.710977
H 0.370111 0.523429 0.471131
Au 0.04 0.1 0.04
Au 0.29 0.1 0.04
Au 0.54 0.1 0.04
Au 0.79 0.1 0.04
Au 0.04 0.1 0.29
Au 0.29 0.1 0.29
Au 0.54 0.1 0.29
Au 0.79 0.1 0.29
Au 0.04 0.1 0.54
Au 0.29 0.1 0.54
Au 0.54 0.1 0.54
Au 0.79 0.1 0.54
Au 0.04 0.1 0.79
Au 0.29 0.1 0.79
Au 0.54 0.1 0.79
Au 0.79 0.1 0.79
Au 0.123333 0.223512 0.206667
Au 0.373333 0.223512 0.206667
Au 0.623333 0.223512 0.206667
Au 0.873333 0.223512 0.206667
Au 0.123333 0.223512 0.456667
Au 0.373333 0.223512 0.456667
Au 0.623333 0.223512 0.456667
Au 0.873333 0.223512 0.456667
Au 0.123333 0.223512 0.706667
Au 0.373333 0.223512 0.706667
Au 0.623333 0.223512 0.706667
Au 0.873333 0.223512 0.706667
Au 0.123333 0.223512 0.956667
Au 0.373333 0.223512 0.956667
Au 0.623333 0.223512 0.956667
Au 0.873333 0.223512 0.956667
Au 0.208608 0.347191 0.126679
Au 0.455498 0.346186 0.124147
Au 0.705937 0.346941 0.124036
Au 0.956734 0.346862 0.123321
Au 0.206244 0.347664 0.373486
Au 0.456996 0.349296 0.378295
Au 0.706053 0.346842 0.374117
Au 0.956131 0.346946 0.374223
Au 0.207314 0.347884 0.623004
Au 0.455998 0.348811 0.624074
Au 0.701775 0.349334 0.623131
Au 0.955971 0.346198 0.624658
Au 0.205701 0.345711 0.874404
Au 0.457062 0.347846 0.872801
Au 0.706579 0.347664 0.87383
Au 0.953358 0.347242 0.871459
Au 0.039624 0.473604 0.040567
Au 0.28843 0.473105 0.041764
Au 0.538059 0.472977 0.044077
Au 0.790666 0.472924 0.043809
Au 0.036434 0.472944 0.289494
Au 0.286175 0.477758 0.287413
Au 0.538814 0.472953 0.291619
Au 0.788269 0.473635 0.292002
Au 0.036166 0.472967 0.542164
Au 0.281441 0.47671 0.542926
Au 0.540823 0.486276 0.539062
Au 0.788438 0.472937 0.541338
Au 0.038395 0.473114 0.791732
Au 0.286829 0.473051 0.79341
Au 0.53728 0.476623 0.79882
Au 0.792832 0.477915 0.79408
