data_none

_audit_creation_method generated by ABACUS

_cell_length_a 11.5352
_cell_length_b 19.0638
_cell_length_c 11.5352
_cell_angle_alpha 90
_cell_angle_beta 120
_cell_angle_gamma 90

loop_
_atom_site_label
_atom_site_fract_x
_atom_site_fract_y
_atom_site_fract_z
H 0.609041 0.524082 0.710302
H 0.371207 0.52468 0.473885
Au 0.04 0.1 0.04
Au 0.29 0.1 0.04
Au 0.54 0.1 0.04
Au 0.79 0.1 0.04
Au 0.04 0.1 0.29
Au 0.29 0.1 0.29
Au 0.54 0.1 0.29
Au 0.79 0.1 0.29
Au 0.04 0.1 0.54
Au 0.29 0.1 0.54
Au 0.54 0.1 0.54
Au 0.79 0.1 0.54
Au 0.04 0.1 0.79
Au 0.29 0.1 0.79
Au 0.54 0.1 0.79
Au 0.79 0.1 0.79
Au 0.123333 0.223512 0.206667
Au 0.373333 0.223512 0.206667
Au 0.623333 0.223512 0.206667
Au 0.873333 0.223512 0.206667
Au 0.123333 0.223512 0.456667
Au 0.373333 0.223512 0.456667
Au 0.623333 0.223512 0.456667
Au 0.873333 0.223512 0.456667
Au 0.123333 0.223512 0.706667
Au 0.373333 0.223512 0.706667
Au 0.623333 0.223512 0.706667
Au 0.873333 0.223512 0.706667
Au 0.123333 0.223512 0.956667
Au 0.373333 0.223512 0.956667
Au 0.623333 0.223512 0.956667
Au 0.873333 0.223512 0.956667
Au 0.208886 0.347105 0.126456
Au 0.455758 0.346167 0.124115
Au 0.706108 0.346916 0.124004
Au 0.956904 0.346819 0.123173
Au 0.206397 0.347722 0.373232
Au 0.457129 0.349508 0.378433
Au 0.706014 0.346815 0.374172
Au 0.956186 0.34691 0.374107
Au 0.207575 0.347911 0.622688
Au 0.456135 0.348965 0.623974
Au 0.701678 0.349561 0.623042
Au 0.956023 0.346172 0.62445
Au 0.206037 0.345635 0.874122
Au 0.457439 0.347878 0.87258
Au 0.706869 0.347735 0.873683
Au 0.953607 0.347166 0.87122
Au 0.040046 0.473522 0.040247
Au 0.288837 0.47303 0.041332
Au 0.538475 0.472902 0.044143
Au 0.791128 0.472934 0.043759
Au 0.036567 0.472941 0.289126
Au 0.286462 0.477699 0.287125
Au 0.538864 0.473095 0.291828
Au 0.788312 0.473553 0.292
Au 0.036183 0.472866 0.541795
Au 0.281359 0.476974 0.542247
Au 0.540829 0.487521 0.539188
Au 0.788293 0.473073 0.541322
Au 0.038864 0.473028 0.791369
Au 0.287321 0.473015 0.792979
Au 0.538043 0.476905 0.799042
Au 0.79324 0.477933 0.793915
