data_none

_audit_creation_method generated by ABACUS

_cell_length_a 11.5352
_cell_length_b 19.0638
_cell_length_c 11.5352
_cell_angle_alpha 90
_cell_angle_beta 120
_cell_angle_gamma 90

loop_
_atom_site_label
_atom_site_fract_x
_atom_site_fract_y
_atom_site_fract_z
H 0.601127 0.524769 0.70719
H 0.373819 0.525487 0.481489
Au 0.04 0.1 0.04
Au 0.29 0.1 0.04
Au 0.54 0.1 0.04
Au 0.79 0.1 0.04
Au 0.04 0.1 0.29
Au 0.29 0.1 0.29
Au 0.54 0.1 0.29
Au 0.79 0.1 0.29
Au 0.04 0.1 0.54
Au 0.29 0.1 0.54
Au 0.54 0.1 0.54
Au 0.79 0.1 0.54
Au 0.04 0.1 0.79
Au 0.29 0.1 0.79
Au 0.54 0.1 0.79
Au 0.79 0.1 0.79
Au 0.123333 0.223512 0.206667
Au 0.373333 0.223512 0.206667
Au 0.623333 0.223512 0.206667
Au 0.873333 0.223512 0.206667
Au 0.123333 0.223512 0.456667
Au 0.373333 0.223512 0.456667
Au 0.623333 0.223512 0.456667
Au 0.873333 0.223512 0.456667
Au 0.123333 0.223512 0.706667
Au 0.373333 0.223512 0.706667
Au 0.623333 0.223512 0.706667
Au 0.873333 0.223512 0.706667
Au 0.123333 0.223512 0.956667
Au 0.373333 0.223512 0.956667
Au 0.623333 0.223512 0.956667
Au 0.873333 0.223512 0.956667
Au 0.208152 0.347165 0.126465
Au 0.45533 0.346356 0.124342
Au 0.705563 0.347183 0.124234
Au 0.956308 0.347077 0.123567
Au 0.205667 0.347773 0.373447
Au 0.456581 0.34948 0.378432
Au 0.705679 0.346993 0.374324
Au 0.955784 0.34719 0.374453
Au 0.207098 0.348191 0.623234
Au 0.455608 0.348863 0.624254
Au 0.701423 0.349531 0.623365
Au 0.955588 0.346375 0.624666
Au 0.205414 0.345923 0.874504
Au 0.456647 0.348141 0.872839
Au 0.70641 0.347782 0.874214
Au 0.953283 0.347242 0.871674
Au 0.038893 0.474034 0.040823
Au 0.287872 0.473469 0.042008
Au 0.537517 0.47335 0.044578
Au 0.790279 0.473481 0.044313
Au 0.035601 0.473502 0.289526
Au 0.285456 0.477331 0.287611
Au 0.538017 0.473351 0.292224
Au 0.787491 0.473962 0.292462
Au 0.035336 0.473338 0.542376
Au 0.279892 0.477047 0.542233
Au 0.539681 0.486723 0.539618
Au 0.787422 0.473332 0.541777
Au 0.037716 0.473481 0.791908
Au 0.286271 0.473472 0.79362
Au 0.537573 0.476959 0.80005
Au 0.792054 0.477604 0.794351
