data_none

_audit_creation_method generated by ABACUS

_cell_length_a 11.5352
_cell_length_b 19.0638
_cell_length_c 11.5352
_cell_angle_alpha 90
_cell_angle_beta 120
_cell_angle_gamma 90

loop_
_atom_site_label
_atom_site_fract_x
_atom_site_fract_y
_atom_site_fract_z
H 0.483046 0.628619 0.663495
H 0.418989 0.63697 0.600334
Au 0.04 0.1 0.04
Au 0.29 0.1 0.04
Au 0.54 0.1 0.04
Au 0.79 0.1 0.04
Au 0.04 0.1 0.29
Au 0.29 0.1 0.29
Au 0.54 0.1 0.29
Au 0.79 0.1 0.29
Au 0.04 0.1 0.54
Au 0.29 0.1 0.54
Au 0.54 0.1 0.54
Au 0.79 0.1 0.54
Au 0.04 0.1 0.79
Au 0.29 0.1 0.79
Au 0.54 0.1 0.79
Au 0.79 0.1 0.79
Au 0.123333 0.223512 0.206667
Au 0.373333 0.223512 0.206667
Au 0.623333 0.223512 0.206667
Au 0.873333 0.223512 0.206667
Au 0.123333 0.223512 0.456667
Au 0.373333 0.223512 0.456667
Au 0.623333 0.223512 0.456667
Au 0.873333 0.223512 0.456667
Au 0.123333 0.223512 0.706667
Au 0.373333 0.223512 0.706667
Au 0.623333 0.223512 0.706667
Au 0.873333 0.223512 0.706667
Au 0.123333 0.223512 0.956667
Au 0.373333 0.223512 0.956667
Au 0.623333 0.223512 0.956667
Au 0.873333 0.223512 0.956667
Au 0.206611 0.347072 0.123289
Au 0.457158 0.34735 0.123531
Au 0.706691 0.347553 0.123462
Au 0.956385 0.347445 0.123598
Au 0.206187 0.347064 0.372848
Au 0.456435 0.346964 0.372777
Au 0.70669 0.347477 0.373303
Au 0.956547 0.347545 0.373318
Au 0.206187 0.347144 0.623535
Au 0.456548 0.346635 0.623503
Au 0.707275 0.346968 0.623601
Au 0.956507 0.347374 0.622915
Au 0.206638 0.347045 0.873316
Au 0.456504 0.347148 0.873812
Au 0.707166 0.34708 0.873834
Au 0.956737 0.347178 0.873392
Au 0.0404937 0.473968 0.0400059
Au 0.289979 0.473717 0.0394867
Au 0.540146 0.475056 0.0402588
Au 0.790266 0.474998 0.0402112
Au 0.0397867 0.474984 0.289845
Au 0.290108 0.474373 0.290325
Au 0.539931 0.474738 0.289942
Au 0.789961 0.475059 0.290049
Au 0.0397754 0.475046 0.539889
Au 0.289334 0.47305 0.539761
Au 0.540199 0.472716 0.539894
Au 0.790139 0.474739 0.540169
Au 0.0403105 0.474113 0.789798
Au 0.290301 0.474696 0.789779
Au 0.540312 0.473111 0.7907
Au 0.789959 0.474394 0.79013
