data_none

_audit_creation_method generated by ABACUS

_cell_length_a 11.1874
_cell_length_b 18.8509
_cell_length_c 11.1874
_cell_angle_alpha 90
_cell_angle_beta 120
_cell_angle_gamma 90

loop_
_atom_site_label
_atom_site_fract_x
_atom_site_fract_y
_atom_site_fract_z
C 0.394085 0.404691 0.683203
O 0.422919 0.44639 0.547655
Pt 0.044552 0 0.022276
Pt 0.294552 0 0.022276
Pt 0.544552 0 0.022276
Pt 0.794552 0 0.022276
Pt 0.044552 0 0.272276
Pt 0.294552 0 0.272276
Pt 0.544552 0 0.272276
Pt 0.794552 0 0.272276
Pt 0.294552 0 0.522276
Pt 0.544552 0 0.522276
Pt 0.794552 0 0.522276
Pt 0.044552 0 0.522276
Pt 0.044552 0 0.772276
Pt 0.294552 0 0.772276
Pt 0.544552 0 0.772276
Pt 0.794552 0 0.772276
Pt 0.878357 0.120141 0.188244
Pt 0.877266 0.120556 0.437865
Pt 0.879516 0.119819 0.937829
Pt 0.627451 0.120521 0.188011
Pt 0.378994 0.120079 0.189468
Pt 0.129038 0.120029 0.187893
Pt 0.876458 0.121302 0.686181
Pt 0.128369 0.120729 0.93673
Pt 0.627013 0.122068 0.438952
Pt 0.377102 0.121334 0.937344
Pt 0.128629 0.120368 0.439541
Pt 0.627624 0.120315 0.937534
Pt 0.627757 0.121586 0.68801
Pt 0.127875 0.121929 0.688087
Pt 0.378133 0.121451 0.439397
Pt 0.37773 0.122309 0.688332
Pt 0.962891 0.238337 0.853024
Pt 0.96242 0.237384 0.103408
Pt 0.960142 0.238075 0.354663
Pt 0.461351 0.238719 0.106093
Pt 0.711611 0.238324 0.105255
Pt 0.710272 0.239329 0.355312
Pt 0.958999 0.239478 0.603901
Pt 0.212104 0.237476 0.101944
Pt 0.460198 0.241031 0.356973
Pt 0.213492 0.242275 0.851079
Pt 0.71424 0.238168 0.856829
Pt 0.706183 0.243398 0.603474
Pt 0.208785 0.238113 0.353559
Pt 0.460997 0.240834 0.855299
Pt 0.461657 0.24224 0.606243
Pt 0.212234 0.242404 0.60359
Pt 0.037852 0.358168 0.266451
Pt 0.544294 0.359904 0.275532
Pt 0.037634 0.358961 0.51923
Pt 0.548214 0.359044 0.030293
Pt 0.046006 0.359374 0.020529
Pt 0.793296 0.359754 0.273897
Pt 0.29665 0.360521 0.021997
Pt 0.805258 0.360839 0.779413
Pt 0.801403 0.359516 0.029454
Pt 0.79362 0.361275 0.523626
Pt 0.045829 0.361005 0.771667
Pt 0.289529 0.35756 0.261204
Pt 0.555839 0.370294 0.538434
Pt 0.56744 0.359115 0.792437
Pt 0.29103 0.371703 0.773872
Pt 0.280562 0.36148 0.49899
