data_none

_audit_creation_method generated by ABACUS

_cell_length_a 11.1874
_cell_length_b 18.8509
_cell_length_c 11.1874
_cell_angle_alpha 90
_cell_angle_beta 120
_cell_angle_gamma 90

loop_
_atom_site_label
_atom_site_fract_x
_atom_site_fract_y
_atom_site_fract_z
C 0.385282 0.400044 0.701549
O 0.400777 0.432509 0.458248
Pt 0.044552 0 0.022276
Pt 0.294552 0 0.022276
Pt 0.544552 0 0.022276
Pt 0.794552 0 0.022276
Pt 0.044552 0 0.272276
Pt 0.294552 0 0.272276
Pt 0.544552 0 0.272276
Pt 0.794552 0 0.272276
Pt 0.294552 0 0.522276
Pt 0.544552 0 0.522276
Pt 0.794552 0 0.522276
Pt 0.044552 0 0.522276
Pt 0.044552 0 0.772276
Pt 0.294552 0 0.772276
Pt 0.544552 0 0.772276
Pt 0.794552 0 0.772276
Pt 0.878402 0.120149 0.188894
Pt 0.877893 0.120593 0.438615
Pt 0.879157 0.120178 0.938766
Pt 0.627439 0.120549 0.188296
Pt 0.378622 0.120431 0.189652
Pt 0.12941 0.120574 0.189272
Pt 0.877622 0.121168 0.687793
Pt 0.128499 0.12114 0.938797
Pt 0.627402 0.12144 0.439377
Pt 0.377496 0.121041 0.937904
Pt 0.129446 0.120822 0.439825
Pt 0.627466 0.120681 0.937538
Pt 0.627888 0.121568 0.688676
Pt 0.128631 0.121587 0.688667
Pt 0.378335 0.12184 0.439751
Pt 0.377872 0.122866 0.688319
Pt 0.96249 0.238179 0.855207
Pt 0.962543 0.237684 0.105465
Pt 0.961417 0.238055 0.355695
Pt 0.461446 0.238687 0.106168
Pt 0.711684 0.238441 0.105583
Pt 0.711348 0.239112 0.35623
Pt 0.960786 0.239105 0.605063
Pt 0.214115 0.239821 0.108761
Pt 0.461838 0.240801 0.358101
Pt 0.212132 0.240513 0.854163
Pt 0.712128 0.239503 0.856079
Pt 0.708255 0.242412 0.604811
Pt 0.212225 0.240735 0.357735
Pt 0.461174 0.241431 0.855379
Pt 0.462194 0.243104 0.606726
Pt 0.213637 0.24358 0.604861
Pt 0.040083 0.358471 0.269321
Pt 0.546927 0.359288 0.274679
Pt 0.038794 0.358926 0.520126
Pt 0.548407 0.358975 0.029404
Pt 0.04575 0.359486 0.022983
Pt 0.794677 0.359699 0.27372
Pt 0.296037 0.360497 0.02682
Pt 0.805048 0.360893 0.780045
Pt 0.800855 0.359668 0.028914
Pt 0.797538 0.361099 0.523709
Pt 0.042497 0.360397 0.77308
Pt 0.293391 0.361814 0.266973
Pt 0.563366 0.366937 0.534836
Pt 0.566569 0.363411 0.78761
Pt 0.286126 0.366661 0.785168
Pt 0.283947 0.368601 0.512682
