data_none

_audit_creation_method generated by ABACUS

_cell_length_a 10.2106
_cell_length_b 30.2527
_cell_length_c 10.2106
_cell_angle_alpha 90
_cell_angle_beta 60
_cell_angle_gamma 90

loop_
_atom_site_label
_atom_site_fract_x
_atom_site_fract_y
_atom_site_fract_z
Cu 0.05 0.396659 0.05
Cu 0.3 0.396659 0.05
Cu 0.55 0.396659 0.05
Cu 0.8 0.396659 0.05
Cu 0.05 0.396659 0.3
Cu 0.3 0.396659 0.3
Cu 0.55 0.396659 0.3
Cu 0.8 0.396659 0.3
Cu 0.05 0.396659 0.55
Cu 0.3 0.396659 0.55
Cu 0.55 0.396659 0.55
Cu 0.8 0.396659 0.55
Cu 0.05 0.396659 0.8
Cu 0.3 0.396659 0.8
Cu 0.55 0.396659 0.8
Cu 0.8 0.396659 0.8
Cu 0.133333 0.465553 0.133333
Cu 0.383333 0.465553 0.133333
Cu 0.633333 0.465553 0.133333
Cu 0.883333 0.465553 0.133333
Cu 0.133333 0.465553 0.383333
Cu 0.383333 0.465553 0.383333
Cu 0.633333 0.465553 0.383333
Cu 0.883333 0.465553 0.383333
Cu 0.133333 0.465553 0.633333
Cu 0.383333 0.465553 0.633333
Cu 0.633333 0.465553 0.633333
Cu 0.883333 0.465553 0.633333
Cu 0.133333 0.465553 0.883333
Cu 0.383333 0.465553 0.883333
Cu 0.633333 0.465553 0.883333
Cu 0.883333 0.465553 0.883333
Cu 0.965999 0.532384 0.217321
Cu 0.218193 0.532022 0.216813
Cu 0.464903 0.531757 0.219522
Cu 0.714291 0.53202 0.216844
Cu 0.967163 0.532895 0.466003
Cu 0.214135 0.533003 0.468852
Cu 0.466287 0.533005 0.468876
Cu 0.716151 0.532877 0.466021
Cu 0.964894 0.533446 0.716687
Cu 0.21598 0.532559 0.717376
Cu 0.467719 0.533448 0.716729
Cu 0.717213 0.533591 0.714937
Cu 0.966017 0.532471 0.966766
Cu 0.216538 0.532474 0.96678
Cu 0.467797 0.53268 0.965544
Cu 0.715973 0.532681 0.96556
Cu 0.050499 0.600056 0.047843
Cu 0.29865 0.599334 0.052122
Cu 0.545294 0.59905 0.058208
Cu 0.798099 0.59933 0.052106
Cu 0.055877 0.599053 0.291479
Cu 0.299326 0.599601 0.301809
Cu 0.547667 0.599601 0.301768
Cu 0.801483 0.599049 0.29146
Cu 0.053846 0.603303 0.546339
Cu 0.299039 0.599979 0.550651
Cu 0.548559 0.603273 0.546268
Cu 0.808234 0.6032 0.53216
Cu 0.050599 0.599948 0.800848
Cu 0.297372 0.599957 0.800832
Cu 0.54285 0.602625 0.813577
Cu 0.792328 0.602624 0.813631
N 0.628812 0.63676 0.641032
N 0.878648 0.636746 0.641087
