data_none

_audit_creation_method generated by ABACUS

_cell_length_a 11.5352
_cell_length_b 19.0638
_cell_length_c 11.5352
_cell_angle_alpha 90
_cell_angle_beta 120
_cell_angle_gamma 90

loop_
_atom_site_label
_atom_site_fract_x
_atom_site_fract_y
_atom_site_fract_z
H 0.497411 0.616712 0.650018
H 0.432601 0.62151 0.585224
Au 0.04 0.1 0.04
Au 0.29 0.1 0.04
Au 0.54 0.1 0.04
Au 0.79 0.1 0.04
Au 0.04 0.1 0.29
Au 0.29 0.1 0.29
Au 0.54 0.1 0.29
Au 0.79 0.1 0.29
Au 0.04 0.1 0.54
Au 0.29 0.1 0.54
Au 0.54 0.1 0.54
Au 0.79 0.1 0.54
Au 0.04 0.1 0.79
Au 0.29 0.1 0.79
Au 0.54 0.1 0.79
Au 0.79 0.1 0.79
Au 0.123333 0.223512 0.206667
Au 0.373333 0.223512 0.206667
Au 0.623333 0.223512 0.206667
Au 0.873333 0.223512 0.206667
Au 0.123333 0.223512 0.456667
Au 0.373333 0.223512 0.456667
Au 0.623333 0.223512 0.456667
Au 0.873333 0.223512 0.456667
Au 0.123333 0.223512 0.706667
Au 0.373333 0.223512 0.706667
Au 0.623333 0.223512 0.706667
Au 0.873333 0.223512 0.706667
Au 0.123333 0.223512 0.956667
Au 0.373333 0.223512 0.956667
Au 0.623333 0.223512 0.956667
Au 0.873333 0.223512 0.956667
Au 0.206357 0.347568 0.122593
Au 0.457142 0.3476 0.123494
Au 0.706719 0.347564 0.123348
Au 0.956512 0.347635 0.123593
Au 0.206147 0.347001 0.372285
Au 0.456152 0.34696 0.372264
Au 0.706681 0.347515 0.373406
Au 0.956753 0.347557 0.373375
Au 0.206235 0.347016 0.623817
Au 0.456704 0.346477 0.623427
Au 0.707848 0.346951 0.623969
Au 0.956592 0.3476 0.622925
Au 0.206456 0.347607 0.873619
Au 0.456314 0.347019 0.873902
Au 0.707827 0.346997 0.873985
Au 0.95747 0.347573 0.873713
Au 0.040247 0.475262 0.040004
Au 0.290086 0.475239 0.039985
Au 0.540175 0.47509 0.040474
Au 0.790574 0.475119 0.040466
Au 0.039796 0.475102 0.289692
Au 0.290105 0.4745 0.290114
Au 0.540088 0.474978 0.289689
Au 0.790151 0.475004 0.290116
Au 0.039791 0.475078 0.540091
Au 0.288886 0.472181 0.53943
Au 0.540805 0.471826 0.539456
Au 0.79057 0.474982 0.540168
Au 0.040281 0.475234 0.79019
Au 0.290294 0.474586 0.789963
Au 0.540837 0.472203 0.791383
Au 0.790125 0.474519 0.790135
