data_none

_audit_creation_method generated by ABACUS

_cell_length_a 10.2106
_cell_length_b 30.2527
_cell_length_c 10.2106
_cell_angle_alpha 90
_cell_angle_beta 60
_cell_angle_gamma 90

loop_
_atom_site_label
_atom_site_fract_x
_atom_site_fract_y
_atom_site_fract_z
Cu 0.05 0.396659 0.05
Cu 0.3 0.396659 0.05
Cu 0.55 0.396659 0.05
Cu 0.8 0.396659 0.05
Cu 0.05 0.396659 0.3
Cu 0.3 0.396659 0.3
Cu 0.55 0.396659 0.3
Cu 0.8 0.396659 0.3
Cu 0.05 0.396659 0.55
Cu 0.3 0.396659 0.55
Cu 0.55 0.396659 0.55
Cu 0.8 0.396659 0.55
Cu 0.05 0.396659 0.8
Cu 0.3 0.396659 0.8
Cu 0.55 0.396659 0.8
Cu 0.8 0.396659 0.8
Cu 0.133333 0.465553 0.133333
Cu 0.383333 0.465553 0.133333
Cu 0.633333 0.465553 0.133333
Cu 0.883333 0.465553 0.133333
Cu 0.133333 0.465553 0.383333
Cu 0.383333 0.465553 0.383333
Cu 0.633333 0.465553 0.383333
Cu 0.883333 0.465553 0.383333
Cu 0.133333 0.465553 0.633333
Cu 0.383333 0.465553 0.633333
Cu 0.633333 0.465553 0.633333
Cu 0.883333 0.465553 0.633333
Cu 0.133333 0.465553 0.883333
Cu 0.383333 0.465553 0.883333
Cu 0.633333 0.465553 0.883333
Cu 0.883333 0.465553 0.883333
Cu 0.9665 0.532351 0.216356
Cu 0.218794 0.53199 0.21555
Cu 0.465529 0.532067 0.218301
Cu 0.715 0.531992 0.215556
Cu 0.969564 0.531724 0.46491
Cu 0.216241 0.532551 0.467659
Cu 0.465432 0.532559 0.467684
Cu 0.714848 0.531712 0.464932
Cu 0.965776 0.532847 0.716129
Cu 0.216121 0.532321 0.717109
Cu 0.467414 0.53284 0.71615
Cu 0.717057 0.532742 0.715248
Cu 0.966059 0.532441 0.966904
Cu 0.216381 0.532443 0.966923
Cu 0.467947 0.532528 0.965486
Cu 0.715923 0.53254 0.965468
Cu 0.050391 0.599931 0.04806
Cu 0.299736 0.599698 0.050276
Cu 0.547037 0.59933 0.054789
Cu 0.798894 0.599698 0.05023
Cu 0.056249 0.599204 0.292127
Cu 0.299282 0.599809 0.30145
Cu 0.548148 0.599812 0.301436
Cu 0.800533 0.599199 0.292138
Cu 0.051994 0.600075 0.547953
Cu 0.298899 0.600042 0.551024
Cu 0.548936 0.600075 0.547959
Cu 0.809914 0.595814 0.529194
Cu 0.050653 0.599739 0.800315
Cu 0.29784 0.59974 0.800332
Cu 0.54257 0.600006 0.805951
Cu 0.800309 0.600043 0.805857
N 0.686527 0.653733 0.660657
N 0.800369 0.65372 0.660943
