data_none

_audit_creation_method generated by ABACUS

_cell_length_a 10.2106
_cell_length_b 30.2527
_cell_length_c 10.2106
_cell_angle_alpha 90
_cell_angle_beta 60
_cell_angle_gamma 90

loop_
_atom_site_label
_atom_site_fract_x
_atom_site_fract_y
_atom_site_fract_z
Cu 0.05 0.396659 0.05
Cu 0.3 0.396659 0.05
Cu 0.55 0.396659 0.05
Cu 0.8 0.396659 0.05
Cu 0.05 0.396659 0.3
Cu 0.3 0.396659 0.3
Cu 0.55 0.396659 0.3
Cu 0.8 0.396659 0.3
Cu 0.05 0.396659 0.55
Cu 0.3 0.396659 0.55
Cu 0.55 0.396659 0.55
Cu 0.8 0.396659 0.55
Cu 0.05 0.396659 0.8
Cu 0.3 0.396659 0.8
Cu 0.55 0.396659 0.8
Cu 0.8 0.396659 0.8
Cu 0.133333 0.465553 0.133333
Cu 0.383333 0.465553 0.133333
Cu 0.633333 0.465553 0.133333
Cu 0.883333 0.465553 0.133333
Cu 0.133333 0.465553 0.383333
Cu 0.383333 0.465553 0.383333
Cu 0.633333 0.465553 0.383333
Cu 0.883333 0.465553 0.383333
Cu 0.133333 0.465553 0.633333
Cu 0.383333 0.465553 0.633333
Cu 0.633333 0.465553 0.633333
Cu 0.883333 0.465553 0.633333
Cu 0.133333 0.465553 0.883333
Cu 0.383333 0.465553 0.883333
Cu 0.633333 0.465553 0.883333
Cu 0.883333 0.465553 0.883333
Cu 0.966721 0.532178 0.216027
Cu 0.217606 0.532067 0.215796
Cu 0.466294 0.532088 0.216927
Cu 0.716087 0.532075 0.215675
Cu 0.968718 0.531602 0.465104
Cu 0.217547 0.532038 0.466156
Cu 0.465797 0.532061 0.466126
Cu 0.715582 0.531602 0.465085
Cu 0.96693 0.532106 0.715952
Cu 0.216411 0.532174 0.71656
Cu 0.466435 0.532017 0.715843
Cu 0.716738 0.532016 0.716036
Cu 0.96639 0.532297 0.96652
Cu 0.216534 0.532291 0.966547
Cu 0.46662 0.531962 0.966885
Cu 0.716114 0.532084 0.966495
Cu 0.050118 0.599587 0.048731
Cu 0.299752 0.599609 0.049773
Cu 0.549223 0.59924 0.050592
Cu 0.799559 0.599605 0.049529
Cu 0.052441 0.599281 0.296369
Cu 0.300161 0.599526 0.29965
Cu 0.549327 0.599525 0.299677
Cu 0.800267 0.599266 0.296349
Cu 0.051919 0.598711 0.547927
Cu 0.299682 0.599606 0.549722
Cu 0.549199 0.59876 0.548271
Cu 0.803954 0.596296 0.541144
Cu 0.050539 0.599481 0.7995
Cu 0.298957 0.599506 0.799562
Cu 0.545422 0.597968 0.802124
Cu 0.801379 0.598452 0.801383
N 0.68709 0.672965 0.662231
N 0.789815 0.671825 0.67404
