data_none

_audit_creation_method generated by ABACUS

_cell_length_a 11.1874
_cell_length_b 18.8509
_cell_length_c 11.1874
_cell_angle_alpha 90
_cell_angle_beta 120
_cell_angle_gamma 90

loop_
_atom_site_label
_atom_site_fract_x
_atom_site_fract_y
_atom_site_fract_z
C 0.629088 0.433692 0.687213
O 0.631094 0.497067 0.686899
Pt 0.044552 0 0.022276
Pt 0.294552 0 0.022276
Pt 0.544552 0 0.022276
Pt 0.794552 0 0.022276
Pt 0.044552 0 0.272276
Pt 0.294552 0 0.272276
Pt 0.544552 0 0.272276
Pt 0.794552 0 0.272276
Pt 0.294552 0 0.522276
Pt 0.544552 0 0.522276
Pt 0.794552 0 0.522276
Pt 0.044552 0 0.522276
Pt 0.044552 0 0.772276
Pt 0.294552 0 0.772276
Pt 0.544552 0 0.772276
Pt 0.794552 0 0.772276
Pt 0.877687 0.120627 0.188752
Pt 0.877721 0.120615 0.438934
Pt 0.877564 0.120828 0.938329
Pt 0.627641 0.120429 0.188712
Pt 0.377842 0.120442 0.188465
Pt 0.128008 0.120482 0.188833
Pt 0.877638 0.120839 0.689099
Pt 0.128451 0.120442 0.939003
Pt 0.627508 0.12084 0.439107
Pt 0.377757 0.120506 0.938828
Pt 0.128006 0.12066 0.438902
Pt 0.62748 0.120917 0.938199
Pt 0.627724 0.12206 0.688881
Pt 0.128028 0.120508 0.688902
Pt 0.378321 0.120867 0.439145
Pt 0.378403 0.120871 0.689031
Pt 0.958606 0.239875 0.853959
Pt 0.96131 0.238798 0.105325
Pt 0.96104 0.239371 0.355189
Pt 0.460999 0.238762 0.105009
Pt 0.710796 0.238806 0.105179
Pt 0.710639 0.238696 0.354822
Pt 0.961341 0.238834 0.605462
Pt 0.211244 0.238663 0.105144
Pt 0.462262 0.240032 0.357681
Pt 0.211408 0.238705 0.85531
Pt 0.710768 0.241059 0.854749
Pt 0.710934 0.240932 0.605402
Pt 0.211139 0.238848 0.354996
Pt 0.462489 0.240221 0.853642
Pt 0.461429 0.241242 0.605455
Pt 0.21115 0.238944 0.605434
Pt 0.044287 0.360056 0.271366
Pt 0.543908 0.359667 0.270711
Pt 0.044553 0.360087 0.52181
Pt 0.543945 0.359822 0.021377
Pt 0.044733 0.359598 0.021714
Pt 0.793915 0.359936 0.271117
Pt 0.294325 0.359615 0.021467
Pt 0.798335 0.364891 0.773414
Pt 0.796285 0.359412 0.025797
Pt 0.796421 0.359316 0.519063
Pt 0.044899 0.359557 0.771655
Pt 0.293987 0.359769 0.270962
Pt 0.541893 0.365354 0.517065
Pt 0.542172 0.366021 0.773128
Pt 0.294225 0.359762 0.77174
Pt 0.289792 0.359532 0.519178
