data_none

_audit_creation_method generated by ABACUS

_cell_length_a 10.862
_cell_length_b 10.862
_cell_length_c 10.862
_cell_angle_alpha 90
_cell_angle_beta 90
_cell_angle_gamma 90

loop_
_atom_site_label
_atom_site_fract_x
_atom_site_fract_y
_atom_site_fract_z
Li 0.627664 0.627664 0.627664
Si 0.127603 0.377285 0.127609
Si 0.127625 0.37788 0.627596
Si 0.127616 0.877909 0.127622
Si 0.127623 0.877328 0.627587
Si 0.627596 0.377884 0.127625
Si 0.627608 0.376148 0.627608
Si 0.627588 0.877323 0.127622
Si 0.627647 0.879141 0.627652
Si 0.002684 0.002683 0.252522
Si 0.003503 0.003506 0.751934
Si 0.003494 0.503238 0.251747
Si 0.002703 0.50202 0.753174
Si 0.503241 0.003486 0.251752
Si 0.502018 0.002708 0.753173
Si 0.502045 0.502047 0.252548
Si 0.498096 0.498106 0.757165
Si 0.12761 0.127609 0.377284
Si 0.127623 0.127622 0.87791
Si 0.127626 0.627596 0.377876
Si 0.127623 0.627587 0.877331
Si 0.627596 0.127625 0.377871
Si 0.627588 0.127623 0.877336
Si 0.627608 0.627607 0.376136
Si 0.627654 0.627654 0.879152
Si 0.002681 0.252525 0.00268
Si 0.003482 0.251748 0.503239
Si 0.003507 0.751935 0.003502
Si 0.002709 0.753174 0.50202
Si 0.503241 0.251746 0.003479
Si 0.502043 0.252546 0.502045
Si 0.502019 0.753173 0.002701
Si 0.498089 0.757168 0.49811
Si 0.377381 0.377379 0.377384
Si 0.37406 0.374062 0.881166
Si 0.374053 0.881172 0.374067
Si 0.377364 0.877838 0.87784
Si 0.881174 0.374063 0.374069
Si 0.877843 0.377361 0.877841
Si 0.877843 0.877845 0.377365
Si 0.88127 0.881267 0.881263
Si 0.252521 0.002679 0.00268
Si 0.25175 0.003488 0.503238
Si 0.251742 0.503238 0.003484
Si 0.252547 0.50204 0.502043
Si 0.751932 0.003504 0.003498
Si 0.753177 0.002703 0.50202
Si 0.753175 0.502021 0.002701
Si 0.757179 0.498106 0.498109
Si 0.377283 0.127609 0.12761
Si 0.377875 0.127625 0.627596
Si 0.377884 0.627596 0.127625
Si 0.376128 0.627602 0.627605
Si 0.877911 0.127623 0.127623
Si 0.877334 0.127622 0.627587
Si 0.877324 0.627587 0.127623
Si 0.87916 0.627653 0.627654
Si 0.252548 0.25255 0.252551
Si 0.251761 0.251758 0.751969
Si 0.251748 0.751969 0.251758
Si 0.252535 0.753158 0.753161
Si 0.751967 0.251756 0.251763
Si 0.753167 0.252534 0.753165
Si 0.753165 0.753163 0.252536
Si 0.757251 0.757239 0.757238
