data_none

_audit_creation_method generated by ABACUS

_cell_length_a 11.5352
_cell_length_b 19.0638
_cell_length_c 11.5352
_cell_angle_alpha 90
_cell_angle_beta 120
_cell_angle_gamma 90

loop_
_atom_site_label
_atom_site_fract_x
_atom_site_fract_y
_atom_site_fract_z
H 0.497266 0.608866 0.650424
H 0.432272 0.612921 0.585318
Au 0.04 0.1 0.04
Au 0.29 0.1 0.04
Au 0.54 0.1 0.04
Au 0.79 0.1 0.04
Au 0.04 0.1 0.29
Au 0.29 0.1 0.29
Au 0.54 0.1 0.29
Au 0.79 0.1 0.29
Au 0.04 0.1 0.54
Au 0.29 0.1 0.54
Au 0.54 0.1 0.54
Au 0.79 0.1 0.54
Au 0.04 0.1 0.79
Au 0.29 0.1 0.79
Au 0.54 0.1 0.79
Au 0.79 0.1 0.79
Au 0.123333 0.223512 0.206667
Au 0.373333 0.223512 0.206667
Au 0.623333 0.223512 0.206667
Au 0.873333 0.223512 0.206667
Au 0.123333 0.223512 0.456667
Au 0.373333 0.223512 0.456667
Au 0.623333 0.223512 0.456667
Au 0.873333 0.223512 0.456667
Au 0.123333 0.223512 0.706667
Au 0.373333 0.223512 0.706667
Au 0.623333 0.223512 0.706667
Au 0.873333 0.223512 0.706667
Au 0.123333 0.223512 0.956667
Au 0.373333 0.223512 0.956667
Au 0.623333 0.223512 0.956667
Au 0.873333 0.223512 0.956667
Au 0.206233 0.347568 0.122281
Au 0.457308 0.347613 0.123548
Au 0.706683 0.347568 0.123316
Au 0.956428 0.347676 0.123679
Au 0.205952 0.346846 0.371856
Au 0.455897 0.346821 0.371884
Au 0.706611 0.347507 0.373466
Au 0.956766 0.347561 0.373391
Au 0.206126 0.346865 0.62395
Au 0.456729 0.346267 0.623398
Au 0.708227 0.346811 0.624223
Au 0.956535 0.347611 0.62275
Au 0.206433 0.347614 0.87364
Au 0.456175 0.346868 0.874003
Au 0.708254 0.346838 0.874176
Au 0.957793 0.347572 0.873843
Au 0.040347 0.475392 0.039893
Au 0.290085 0.475321 0.039797
Au 0.540206 0.475179 0.040639
Au 0.790837 0.475229 0.040662
Au 0.03957 0.475218 0.289405
Au 0.29003 0.474413 0.289935
Au 0.540031 0.475065 0.289456
Au 0.790119 0.474962 0.290127
Au 0.039607 0.475165 0.540046
Au 0.288139 0.471298 0.538915
Au 0.541148 0.470933 0.539074
Au 0.790788 0.475062 0.540212
Au 0.040458 0.475317 0.790179
Au 0.290444 0.47455 0.789801
Au 0.541323 0.471322 0.792086
Au 0.790289 0.474417 0.790189
