data_none

_audit_creation_method generated by ABACUS

_cell_length_a 11.5352
_cell_length_b 19.0638
_cell_length_c 11.5352
_cell_angle_alpha 90
_cell_angle_beta 120
_cell_angle_gamma 90

loop_
_atom_site_label
_atom_site_fract_x
_atom_site_fract_y
_atom_site_fract_z
H 0.534322 0.53347 0.675795
H 0.405521 0.533402 0.546649
Au 0.04 0.1 0.04
Au 0.29 0.1 0.04
Au 0.54 0.1 0.04
Au 0.79 0.1 0.04
Au 0.04 0.1 0.29
Au 0.29 0.1 0.29
Au 0.54 0.1 0.29
Au 0.79 0.1 0.29
Au 0.04 0.1 0.54
Au 0.29 0.1 0.54
Au 0.54 0.1 0.54
Au 0.79 0.1 0.54
Au 0.04 0.1 0.79
Au 0.29 0.1 0.79
Au 0.54 0.1 0.79
Au 0.79 0.1 0.79
Au 0.123333 0.223512 0.206667
Au 0.373333 0.223512 0.206667
Au 0.623333 0.223512 0.206667
Au 0.873333 0.223512 0.206667
Au 0.123333 0.223512 0.456667
Au 0.373333 0.223512 0.456667
Au 0.623333 0.223512 0.456667
Au 0.873333 0.223512 0.456667
Au 0.123333 0.223512 0.706667
Au 0.373333 0.223512 0.706667
Au 0.623333 0.223512 0.706667
Au 0.873333 0.223512 0.706667
Au 0.123333 0.223512 0.956667
Au 0.373333 0.223512 0.956667
Au 0.623333 0.223512 0.956667
Au 0.873333 0.223512 0.956667
Au 0.207616 0.346162 0.123329
Au 0.456909 0.346535 0.123599
Au 0.706531 0.347311 0.123814
Au 0.956707 0.347163 0.123505
Au 0.206312 0.347393 0.372264
Au 0.456894 0.34915 0.376611
Au 0.706209 0.346768 0.373929
Au 0.95633 0.347271 0.373616
Au 0.208472 0.348451 0.622438
Au 0.456539 0.348548 0.623633
Au 0.703482 0.349176 0.623223
Au 0.956585 0.346526 0.623217
Au 0.207394 0.346017 0.872748
Au 0.457704 0.34847 0.871752
Au 0.707902 0.347371 0.873884
Au 0.956791 0.346148 0.872501
Au 0.041352 0.474289 0.038862
Au 0.290358 0.473656 0.038932
Au 0.540166 0.473882 0.043535
Au 0.793911 0.474837 0.044651
Au 0.035816 0.474839 0.286512
Au 0.28622 0.474165 0.283939
Au 0.539399 0.474042 0.290982
Au 0.788843 0.473984 0.291498
Au 0.036861 0.473883 0.540096
Au 0.278111 0.477144 0.531912
Au 0.541326 0.48346 0.538837
Au 0.789256 0.474034 0.540834
Au 0.041157 0.473629 0.789731
Au 0.29032 0.473864 0.789935
Au 0.54845 0.477091 0.802407
Au 0.796231 0.474127 0.794048
