data_none

_audit_creation_method generated by ABACUS

_cell_length_a 10.2106
_cell_length_b 30.2527
_cell_length_c 10.2106
_cell_angle_alpha 90
_cell_angle_beta 60
_cell_angle_gamma 90

loop_
_atom_site_label
_atom_site_fract_x
_atom_site_fract_y
_atom_site_fract_z
Cu 0.05 0.396659 0.05
Cu 0.3 0.396659 0.05
Cu 0.55 0.396659 0.05
Cu 0.8 0.396659 0.05
Cu 0.05 0.396659 0.3
Cu 0.3 0.396659 0.3
Cu 0.55 0.396659 0.3
Cu 0.8 0.396659 0.3
Cu 0.05 0.396659 0.55
Cu 0.3 0.396659 0.55
Cu 0.55 0.396659 0.55
Cu 0.8 0.396659 0.55
Cu 0.05 0.396659 0.8
Cu 0.3 0.396659 0.8
Cu 0.55 0.396659 0.8
Cu 0.8 0.396659 0.8
Cu 0.133333 0.465553 0.133333
Cu 0.383333 0.465553 0.133333
Cu 0.633333 0.465553 0.133333
Cu 0.883333 0.465553 0.133333
Cu 0.133333 0.465553 0.383333
Cu 0.383333 0.465553 0.383333
Cu 0.633333 0.465553 0.383333
Cu 0.883333 0.465553 0.383333
Cu 0.133333 0.465553 0.633333
Cu 0.383333 0.465553 0.633333
Cu 0.633333 0.465553 0.633333
Cu 0.883333 0.465553 0.633333
Cu 0.133333 0.465553 0.883333
Cu 0.383333 0.465553 0.883333
Cu 0.633333 0.465553 0.883333
Cu 0.883333 0.465553 0.883333
Cu 0.966669 0.532418 0.216375
Cu 0.216838 0.532404 0.216237
Cu 0.466545 0.532436 0.216618
Cu 0.716606 0.532403 0.216153
Cu 0.967743 0.532066 0.465789
Cu 0.217124 0.532369 0.466222
Cu 0.466303 0.532347 0.466157
Cu 0.716193 0.532088 0.465842
Cu 0.967012 0.53228 0.716221
Cu 0.216543 0.532419 0.716466
Cu 0.466316 0.532206 0.716159
Cu 0.716616 0.53208 0.716566
Cu 0.966582 0.53251 0.966446
Cu 0.21663 0.532488 0.966476
Cu 0.466254 0.532167 0.967177
Cu 0.716374 0.532267 0.966852
Cu 0.049945 0.59979 0.049471
Cu 0.299907 0.599886 0.049694
Cu 0.54992 0.599728 0.049562
Cu 0.79982 0.599884 0.049557
Cu 0.050433 0.599797 0.298999
Cu 0.300054 0.599794 0.299533
Cu 0.549898 0.599811 0.299535
Cu 0.80001 0.599765 0.29898
Cu 0.05043 0.599468 0.549186
Cu 0.299927 0.599862 0.549579
Cu 0.549765 0.599378 0.549263
Cu 0.801194 0.597959 0.547513
Cu 0.050084 0.599828 0.799491
Cu 0.299736 0.599815 0.799548
Cu 0.54842 0.598573 0.800629
Cu 0.80037 0.599006 0.800154
N 0.675805 0.6913 0.657121
N 0.77492 0.690142 0.673279
