data_none

_audit_creation_method generated by ABACUS

_cell_length_a 11.5352
_cell_length_b 19.0638
_cell_length_c 11.5352
_cell_angle_alpha 90
_cell_angle_beta 120
_cell_angle_gamma 90

loop_
_atom_site_label
_atom_site_fract_x
_atom_site_fract_y
_atom_site_fract_z
H 0.582876 0.528653 0.699599
H 0.381471 0.528973 0.498757
Au 0.04 0.1 0.04
Au 0.29 0.1 0.04
Au 0.54 0.1 0.04
Au 0.79 0.1 0.04
Au 0.04 0.1 0.29
Au 0.29 0.1 0.29
Au 0.54 0.1 0.29
Au 0.79 0.1 0.29
Au 0.04 0.1 0.54
Au 0.29 0.1 0.54
Au 0.54 0.1 0.54
Au 0.79 0.1 0.54
Au 0.04 0.1 0.79
Au 0.29 0.1 0.79
Au 0.54 0.1 0.79
Au 0.79 0.1 0.79
Au 0.123333 0.223512 0.206667
Au 0.373333 0.223512 0.206667
Au 0.623333 0.223512 0.206667
Au 0.873333 0.223512 0.206667
Au 0.123333 0.223512 0.456667
Au 0.373333 0.223512 0.456667
Au 0.623333 0.223512 0.456667
Au 0.873333 0.223512 0.456667
Au 0.123333 0.223512 0.706667
Au 0.373333 0.223512 0.706667
Au 0.623333 0.223512 0.706667
Au 0.873333 0.223512 0.706667
Au 0.123333 0.223512 0.956667
Au 0.373333 0.223512 0.956667
Au 0.623333 0.223512 0.956667
Au 0.873333 0.223512 0.956667
Au 0.208538 0.346429 0.124946
Au 0.456202 0.346186 0.123965
Au 0.706296 0.346931 0.123932
Au 0.956898 0.3469 0.123228
Au 0.206092 0.347284 0.372424
Au 0.457275 0.349262 0.378146
Au 0.706171 0.346633 0.373995
Au 0.956225 0.346929 0.373881
Au 0.207982 0.348043 0.622385
Au 0.456324 0.34808 0.623858
Au 0.702033 0.349312 0.622897
Au 0.956234 0.346178 0.623972
Au 0.20669 0.345613 0.873474
Au 0.457741 0.348028 0.872213
Au 0.707703 0.347296 0.874037
Au 0.955168 0.346458 0.871591
Au 0.040676 0.473738 0.03959
Au 0.289864 0.473152 0.040357
Au 0.539531 0.47285 0.044455
Au 0.792376 0.473479 0.044001
Au 0.036371 0.473475 0.287947
Au 0.286118 0.475191 0.284966
Au 0.539083 0.473192 0.292771
Au 0.788345 0.473591 0.291962
Au 0.035998 0.472827 0.540694
Au 0.279667 0.476311 0.538673
Au 0.539778 0.487126 0.54045
Au 0.787599 0.473176 0.541205
Au 0.039819 0.473139 0.7903
Au 0.288197 0.473019 0.792057
Au 0.541545 0.476284 0.800841
Au 0.795238 0.475291 0.794204
