data_none

_audit_creation_method generated by ABACUS

_cell_length_a 11.5352
_cell_length_b 19.0638
_cell_length_c 11.5352
_cell_angle_alpha 90
_cell_angle_beta 120
_cell_angle_gamma 90

loop_
_atom_site_label
_atom_site_fract_x
_atom_site_fract_y
_atom_site_fract_z
H 0.560772 0.531507 0.689237
H 0.391012 0.531688 0.520056
Au 0.04 0.1 0.04
Au 0.29 0.1 0.04
Au 0.54 0.1 0.04
Au 0.79 0.1 0.04
Au 0.04 0.1 0.29
Au 0.29 0.1 0.29
Au 0.54 0.1 0.29
Au 0.79 0.1 0.29
Au 0.04 0.1 0.54
Au 0.29 0.1 0.54
Au 0.54 0.1 0.54
Au 0.79 0.1 0.54
Au 0.04 0.1 0.79
Au 0.29 0.1 0.79
Au 0.54 0.1 0.79
Au 0.79 0.1 0.79
Au 0.123333 0.223512 0.206667
Au 0.373333 0.223512 0.206667
Au 0.623333 0.223512 0.206667
Au 0.873333 0.223512 0.206667
Au 0.123333 0.223512 0.456667
Au 0.373333 0.223512 0.456667
Au 0.623333 0.223512 0.456667
Au 0.873333 0.223512 0.456667
Au 0.123333 0.223512 0.706667
Au 0.373333 0.223512 0.706667
Au 0.623333 0.223512 0.706667
Au 0.873333 0.223512 0.706667
Au 0.123333 0.223512 0.956667
Au 0.373333 0.223512 0.956667
Au 0.623333 0.223512 0.956667
Au 0.873333 0.223512 0.956667
Au 0.20765 0.346322 0.124762
Au 0.455908 0.346353 0.124183
Au 0.705725 0.347216 0.12415
Au 0.956208 0.347073 0.123754
Au 0.205558 0.34733 0.372798
Au 0.456662 0.349354 0.378013
Au 0.705718 0.346814 0.37425
Au 0.955826 0.347226 0.374256
Au 0.207723 0.348412 0.622886
Au 0.455877 0.348541 0.624046
Au 0.701928 0.349368 0.62329
Au 0.955773 0.346364 0.624054
Au 0.20639 0.345913 0.873554
Au 0.457038 0.348395 0.872211
Au 0.707119 0.347323 0.874382
Au 0.95512 0.346342 0.87227
Au 0.039684 0.474104 0.040139
Au 0.288913 0.473445 0.040471
Au 0.538561 0.473454 0.044497
Au 0.791875 0.474248 0.044819
Au 0.03508 0.47426 0.288005
Au 0.284976 0.47465 0.285006
Au 0.538129 0.473624 0.292696
Au 0.787486 0.473874 0.292376
Au 0.035378 0.473478 0.541271
Au 0.277646 0.476941 0.536399
Au 0.539126 0.48641 0.540502
Au 0.787098 0.47363 0.541714
Au 0.039298 0.473453 0.790865
Au 0.287952 0.473785 0.791889
Au 0.543447 0.476926 0.802295
Au 0.794759 0.474685 0.79488
