data_none

_audit_creation_method generated by ABACUS

_cell_length_a 11.5352
_cell_length_b 19.0638
_cell_length_c 11.5352
_cell_angle_alpha 90
_cell_angle_beta 120
_cell_angle_gamma 90

loop_
_atom_site_label
_atom_site_fract_x
_atom_site_fract_y
_atom_site_fract_z
H 0.500898 0.584942 0.64528
H 0.435036 0.584897 0.579487
Au 0.04 0.1 0.04
Au 0.29 0.1 0.04
Au 0.54 0.1 0.04
Au 0.79 0.1 0.04
Au 0.04 0.1 0.29
Au 0.29 0.1 0.29
Au 0.54 0.1 0.29
Au 0.79 0.1 0.29
Au 0.04 0.1 0.54
Au 0.29 0.1 0.54
Au 0.54 0.1 0.54
Au 0.79 0.1 0.54
Au 0.04 0.1 0.79
Au 0.29 0.1 0.79
Au 0.54 0.1 0.79
Au 0.79 0.1 0.79
Au 0.123333 0.223512 0.206667
Au 0.373333 0.223512 0.206667
Au 0.623333 0.223512 0.206667
Au 0.873333 0.223512 0.206667
Au 0.123333 0.223512 0.456667
Au 0.373333 0.223512 0.456667
Au 0.623333 0.223512 0.456667
Au 0.873333 0.223512 0.456667
Au 0.123333 0.223512 0.706667
Au 0.373333 0.223512 0.706667
Au 0.623333 0.223512 0.706667
Au 0.873333 0.223512 0.706667
Au 0.123333 0.223512 0.956667
Au 0.373333 0.223512 0.956667
Au 0.623333 0.223512 0.956667
Au 0.873333 0.223512 0.956667
Au 0.205503 0.347434 0.122018
Au 0.457038 0.347581 0.124059
Au 0.706146 0.347657 0.123899
Au 0.955763 0.347747 0.124176
Au 0.204849 0.34657 0.371399
Au 0.454643 0.346574 0.37173
Au 0.705952 0.34747 0.373988
Au 0.956056 0.347655 0.373801
Au 0.205376 0.346604 0.624628
Au 0.455988 0.346319 0.623953
Au 0.708191 0.346576 0.625273
Au 0.955866 0.347585 0.622882
Au 0.205853 0.347601 0.874057
Au 0.455306 0.346606 0.874564
Au 0.708535 0.346569 0.875093
Au 0.957908 0.347426 0.87442
Au 0.039495 0.475613 0.040378
Au 0.288831 0.475441 0.040048
Au 0.539104 0.475439 0.042265
Au 0.790693 0.475593 0.04237
Au 0.03748 0.475585 0.289188
Au 0.288303 0.474075 0.289842
Au 0.538636 0.475186 0.289519
Au 0.78878 0.475047 0.291049
Au 0.037568 0.475438 0.540734
Au 0.283476 0.469562 0.537672
Au 0.541471 0.468699 0.538345
Au 0.790334 0.475197 0.541213
Au 0.039805 0.475448 0.791016
Au 0.289614 0.474454 0.790208
Au 0.542193 0.469556 0.796389
Au 0.790017 0.474053 0.791533
