data_none

_audit_creation_method generated by ABACUS

_cell_length_a 10.2106
_cell_length_b 30.2527
_cell_length_c 10.2106
_cell_angle_alpha 90
_cell_angle_beta 60
_cell_angle_gamma 90

loop_
_atom_site_label
_atom_site_fract_x
_atom_site_fract_y
_atom_site_fract_z
Cu 0.05 0.396659 0.05
Cu 0.3 0.396659 0.05
Cu 0.55 0.396659 0.05
Cu 0.8 0.396659 0.05
Cu 0.05 0.396659 0.3
Cu 0.3 0.396659 0.3
Cu 0.55 0.396659 0.3
Cu 0.8 0.396659 0.3
Cu 0.05 0.396659 0.55
Cu 0.3 0.396659 0.55
Cu 0.55 0.396659 0.55
Cu 0.8 0.396659 0.55
Cu 0.05 0.396659 0.8
Cu 0.3 0.396659 0.8
Cu 0.55 0.396659 0.8
Cu 0.8 0.396659 0.8
Cu 0.133333 0.465553 0.133333
Cu 0.383333 0.465553 0.133333
Cu 0.633333 0.465553 0.133333
Cu 0.883333 0.465553 0.133333
Cu 0.133333 0.465553 0.383333
Cu 0.383333 0.465553 0.383333
Cu 0.633333 0.465553 0.383333
Cu 0.883333 0.465553 0.383333
Cu 0.133333 0.465553 0.633333
Cu 0.383333 0.465553 0.633333
Cu 0.633333 0.465553 0.633333
Cu 0.883333 0.465553 0.633333
Cu 0.133333 0.465553 0.883333
Cu 0.383333 0.465553 0.883333
Cu 0.633333 0.465553 0.883333
Cu 0.883333 0.465553 0.883333
Cu 0.966697 0.532456 0.216563
Cu 0.216698 0.532458 0.216521
Cu 0.466647 0.532464 0.216656
Cu 0.716695 0.532456 0.216474
Cu 0.967183 0.532291 0.466295
Cu 0.216826 0.532449 0.466511
Cu 0.466542 0.532419 0.466443
Cu 0.716519 0.532312 0.466366
Cu 0.966811 0.532413 0.716508
Cu 0.216619 0.532462 0.716588
Cu 0.46651 0.532343 0.716463
Cu 0.716701 0.532258 0.716692
Cu 0.966674 0.532492 0.966581
Cu 0.216661 0.532473 0.966599
Cu 0.466425 0.532312 0.967016
Cu 0.716599 0.532406 0.966735
Cu 0.049996 0.59986 0.049843
Cu 0.300027 0.599897 0.049858
Cu 0.550036 0.599843 0.049745
Cu 0.799966 0.599893 0.049806
Cu 0.050066 0.599877 0.299788
Cu 0.30004 0.599855 0.299815
Cu 0.550043 0.599875 0.299812
Cu 0.800011 0.599854 0.299786
Cu 0.050047 0.599795 0.549774
Cu 0.300017 0.599885 0.549839
Cu 0.549982 0.599663 0.549773
Cu 0.800504 0.59901 0.549293
Cu 0.050011 0.59988 0.799796
Cu 0.300001 0.599867 0.799827
Cu 0.549506 0.599181 0.800303
Cu 0.800089 0.599614 0.799957
N 0.653657 0.70325 0.648797
N 0.743542 0.702605 0.678653
