data_none

_audit_creation_method generated by ABACUS

_cell_length_a 11.5352
_cell_length_b 19.0638
_cell_length_c 11.5352
_cell_angle_alpha 90
_cell_angle_beta 120
_cell_angle_gamma 90

loop_
_atom_site_label
_atom_site_fract_x
_atom_site_fract_y
_atom_site_fract_z
H 0.62836 0.516838 0.713335
H 0.368524 0.516685 0.453651
Au 0.04 0.1 0.04
Au 0.29 0.1 0.04
Au 0.54 0.1 0.04
Au 0.79 0.1 0.04
Au 0.04 0.1 0.29
Au 0.29 0.1 0.29
Au 0.54 0.1 0.29
Au 0.79 0.1 0.29
Au 0.04 0.1 0.54
Au 0.29 0.1 0.54
Au 0.54 0.1 0.54
Au 0.79 0.1 0.54
Au 0.04 0.1 0.79
Au 0.29 0.1 0.79
Au 0.54 0.1 0.79
Au 0.79 0.1 0.79
Au 0.123333 0.223512 0.206667
Au 0.373333 0.223512 0.206667
Au 0.623333 0.223512 0.206667
Au 0.873333 0.223512 0.206667
Au 0.123333 0.223512 0.456667
Au 0.373333 0.223512 0.456667
Au 0.623333 0.223512 0.456667
Au 0.873333 0.223512 0.456667
Au 0.123333 0.223512 0.706667
Au 0.373333 0.223512 0.706667
Au 0.623333 0.223512 0.706667
Au 0.873333 0.223512 0.706667
Au 0.123333 0.223512 0.956667
Au 0.373333 0.223512 0.956667
Au 0.623333 0.223512 0.956667
Au 0.873333 0.223512 0.956667
Au 0.209034 0.347175 0.126057
Au 0.455203 0.346172 0.122281
Au 0.70616 0.347014 0.123487
Au 0.95721 0.346894 0.122736
Au 0.206522 0.347308 0.372856
Au 0.457619 0.348076 0.376357
Au 0.707205 0.346861 0.372827
Au 0.95648 0.347025 0.373806
Au 0.207398 0.34765 0.622492
Au 0.456885 0.348191 0.623243
Au 0.704056 0.348079 0.622661
Au 0.957859 0.346186 0.62486
Au 0.206409 0.345827 0.873751
Au 0.457566 0.347667 0.872586
Au 0.707185 0.347279 0.873424
Au 0.95444 0.34722 0.871367
Au 0.0415265 0.473269 0.0398337
Au 0.289811 0.473506 0.0392365
Au 0.538964 0.474002 0.0412292
Au 0.791384 0.472606 0.0422795
Au 0.0379928 0.472688 0.288916
Au 0.286388 0.477501 0.282921
Au 0.540903 0.471861 0.288006
Au 0.790012 0.474771 0.289972
Au 0.0391161 0.473983 0.541041
Au 0.284865 0.475466 0.542245
Au 0.545104 0.480497 0.536597
Au 0.792759 0.471806 0.539479
Au 0.0415852 0.473451 0.790649
Au 0.288977 0.473405 0.791426
Au 0.538461 0.475462 0.79568
Au 0.798532 0.477461 0.794684
