data_none

_audit_creation_method generated by ABACUS

_cell_length_a 11.5352
_cell_length_b 19.0638
_cell_length_c 11.5352
_cell_angle_alpha 90
_cell_angle_beta 120
_cell_angle_gamma 90

loop_
_atom_site_label
_atom_site_fract_x
_atom_site_fract_y
_atom_site_fract_z
H 0.57621 0.53039 0.696424
H 0.384989 0.530798 0.506438
Au 0.04 0.1 0.04
Au 0.29 0.1 0.04
Au 0.54 0.1 0.04
Au 0.79 0.1 0.04
Au 0.04 0.1 0.29
Au 0.29 0.1 0.29
Au 0.54 0.1 0.29
Au 0.79 0.1 0.29
Au 0.04 0.1 0.54
Au 0.29 0.1 0.54
Au 0.54 0.1 0.54
Au 0.79 0.1 0.54
Au 0.04 0.1 0.79
Au 0.29 0.1 0.79
Au 0.54 0.1 0.79
Au 0.79 0.1 0.79
Au 0.123333 0.223512 0.206667
Au 0.373333 0.223512 0.206667
Au 0.623333 0.223512 0.206667
Au 0.873333 0.223512 0.206667
Au 0.123333 0.223512 0.456667
Au 0.373333 0.223512 0.456667
Au 0.623333 0.223512 0.456667
Au 0.873333 0.223512 0.456667
Au 0.123333 0.223512 0.706667
Au 0.373333 0.223512 0.706667
Au 0.623333 0.223512 0.706667
Au 0.873333 0.223512 0.706667
Au 0.123333 0.223512 0.956667
Au 0.373333 0.223512 0.956667
Au 0.623333 0.223512 0.956667
Au 0.873333 0.223512 0.956667
Au 0.208556 0.346549 0.124653
Au 0.456485 0.346381 0.124058
Au 0.706333 0.347193 0.123824
Au 0.956863 0.34713 0.123263
Au 0.206152 0.347493 0.372229
Au 0.457319 0.349676 0.378058
Au 0.706092 0.346983 0.374051
Au 0.956371 0.34719 0.373873
Au 0.208214 0.348402 0.622348
Au 0.456497 0.348643 0.623703
Au 0.702106 0.349706 0.622851
Au 0.956092 0.346393 0.623674
Au 0.206996 0.345885 0.873164
Au 0.457832 0.348401 0.871976
Au 0.707895 0.347517 0.873975
Au 0.955409 0.346596 0.871541
Au 0.040883 0.473958 0.039346
Au 0.290046 0.473376 0.03994
Au 0.539724 0.47328 0.044352
Au 0.792728 0.474067 0.044041
Au 0.036303 0.474063 0.287586
Au 0.286019 0.475359 0.28466
Au 0.538862 0.473795 0.292669
Au 0.788329 0.47371 0.291946
Au 0.036004 0.473265 0.54049
Au 0.279301 0.476765 0.537488
Au 0.539787 0.48839 0.540242
Au 0.787498 0.473787 0.541332
Au 0.040157 0.473376 0.790055
Au 0.288641 0.473799 0.791588
Au 0.542726 0.476822 0.8012
Au 0.795487 0.475504 0.794261
