data_none

_audit_creation_method generated by ABACUS

_cell_length_a 11.5352
_cell_length_b 19.0638
_cell_length_c 11.5352
_cell_angle_alpha 90
_cell_angle_beta 120
_cell_angle_gamma 90

loop_
_atom_site_label
_atom_site_fract_x
_atom_site_fract_y
_atom_site_fract_z
H 0.501412 0.610364 0.645527
H 0.436343 0.613396 0.580383
Au 0.04 0.1 0.04
Au 0.29 0.1 0.04
Au 0.54 0.1 0.04
Au 0.79 0.1 0.04
Au 0.04 0.1 0.29
Au 0.29 0.1 0.29
Au 0.54 0.1 0.29
Au 0.79 0.1 0.29
Au 0.04 0.1 0.54
Au 0.29 0.1 0.54
Au 0.54 0.1 0.54
Au 0.79 0.1 0.54
Au 0.04 0.1 0.79
Au 0.29 0.1 0.79
Au 0.54 0.1 0.79
Au 0.79 0.1 0.79
Au 0.123333 0.223512 0.206667
Au 0.373333 0.223512 0.206667
Au 0.623333 0.223512 0.206667
Au 0.873333 0.223512 0.206667
Au 0.123333 0.223512 0.456667
Au 0.373333 0.223512 0.456667
Au 0.623333 0.223512 0.456667
Au 0.873333 0.223512 0.456667
Au 0.123333 0.223512 0.706667
Au 0.373333 0.223512 0.706667
Au 0.623333 0.223512 0.706667
Au 0.873333 0.223512 0.706667
Au 0.123333 0.223512 0.956667
Au 0.373333 0.223512 0.956667
Au 0.623333 0.223512 0.956667
Au 0.873333 0.223512 0.956667
Au 0.206285 0.347544 0.122343
Au 0.457289 0.347615 0.123581
Au 0.706758 0.347572 0.123429
Au 0.956501 0.347667 0.123644
Au 0.205942 0.346867 0.371989
Au 0.455917 0.346791 0.371985
Au 0.70664 0.3475 0.373494
Au 0.956712 0.347565 0.373374
Au 0.206077 0.346876 0.623936
Au 0.456644 0.34626 0.623527
Au 0.708168 0.346783 0.624247
Au 0.956551 0.347615 0.62282
Au 0.206451 0.347617 0.873668
Au 0.456238 0.34688 0.874102
Au 0.708159 0.346863 0.874228
Au 0.957762 0.347549 0.873829
Au 0.04033 0.475375 0.039994
Au 0.290099 0.475327 0.039951
Au 0.540221 0.475166 0.040725
Au 0.790772 0.475196 0.0407
Au 0.039624 0.475181 0.289558
Au 0.289995 0.474332 0.290014
Au 0.540072 0.475016 0.289616
Au 0.790136 0.475033 0.290196
Au 0.039604 0.475152 0.540112
Au 0.288277 0.471482 0.539186
Au 0.54106 0.470831 0.539261
Au 0.790713 0.475019 0.540256
Au 0.040388 0.475327 0.790249
Au 0.290359 0.474515 0.789962
Au 0.541143 0.471503 0.792053
Au 0.790291 0.474345 0.790308
