data_none

_audit_creation_method generated by ABACUS

_cell_length_a 11.5352
_cell_length_b 19.0638
_cell_length_c 11.5352
_cell_angle_alpha 90
_cell_angle_beta 120
_cell_angle_gamma 90

loop_
_atom_site_label
_atom_site_fract_x
_atom_site_fract_y
_atom_site_fract_z
H 0.517753 0.534982 0.660188
H 0.421611 0.535007 0.563512
Au 0.04 0.1 0.04
Au 0.29 0.1 0.04
Au 0.54 0.1 0.04
Au 0.79 0.1 0.04
Au 0.04 0.1 0.29
Au 0.29 0.1 0.29
Au 0.54 0.1 0.29
Au 0.79 0.1 0.29
Au 0.04 0.1 0.54
Au 0.29 0.1 0.54
Au 0.54 0.1 0.54
Au 0.79 0.1 0.54
Au 0.04 0.1 0.79
Au 0.29 0.1 0.79
Au 0.54 0.1 0.79
Au 0.79 0.1 0.79
Au 0.123333 0.223512 0.206667
Au 0.373333 0.223512 0.206667
Au 0.623333 0.223512 0.206667
Au 0.873333 0.223512 0.206667
Au 0.123333 0.223512 0.456667
Au 0.373333 0.223512 0.456667
Au 0.623333 0.223512 0.456667
Au 0.873333 0.223512 0.456667
Au 0.123333 0.223512 0.706667
Au 0.373333 0.223512 0.706667
Au 0.623333 0.223512 0.706667
Au 0.873333 0.223512 0.706667
Au 0.123333 0.223512 0.956667
Au 0.373333 0.223512 0.956667
Au 0.623333 0.223512 0.956667
Au 0.873333 0.223512 0.956667
Au 0.207282 0.346181 0.122863
Au 0.457215 0.346568 0.123433
Au 0.706503 0.347339 0.123725
Au 0.956468 0.347076 0.123735
Au 0.206541 0.347327 0.372161
Au 0.456477 0.348872 0.375858
Au 0.706109 0.346772 0.374009
Au 0.956442 0.347326 0.373656
Au 0.208619 0.348017 0.622962
Au 0.456762 0.348861 0.623477
Au 0.704274 0.34891 0.623639
Au 0.956715 0.346576 0.622907
Au 0.207309 0.346212 0.872848
Au 0.45725 0.348033 0.871599
Au 0.707993 0.347344 0.873629
Au 0.957302 0.346167 0.872886
Au 0.041472 0.474187 0.038837
Au 0.290229 0.47358 0.038459
Au 0.540095 0.474263 0.043457
Au 0.794227 0.475151 0.044335
Au 0.036087 0.47518 0.286213
Au 0.286454 0.474294 0.284491
Au 0.539279 0.47421 0.289192
Au 0.789242 0.473687 0.291102
Au 0.036942 0.474245 0.540165
Au 0.277586 0.475697 0.531027
Au 0.543802 0.480478 0.53607
Au 0.791028 0.474194 0.540963
Au 0.041734 0.473558 0.789924
Au 0.291101 0.474302 0.789203
Au 0.549368 0.475786 0.80302
Au 0.795763 0.474234 0.793823
