data_none

_audit_creation_method generated by ABACUS

_cell_length_a 11.1874
_cell_length_b 18.8509
_cell_length_c 11.1874
_cell_angle_alpha 90
_cell_angle_beta 120
_cell_angle_gamma 90

loop_
_atom_site_label
_atom_site_fract_x
_atom_site_fract_y
_atom_site_fract_z
C 0.415871 0.425277 0.643964
O 0.424266 0.480692 0.59699
Pt 0.044552 0 0.022276
Pt 0.294552 0 0.022276
Pt 0.544552 0 0.022276
Pt 0.794552 0 0.022276
Pt 0.044552 0 0.272276
Pt 0.294552 0 0.272276
Pt 0.544552 0 0.272276
Pt 0.794552 0 0.272276
Pt 0.294552 0 0.522276
Pt 0.544552 0 0.522276
Pt 0.794552 0 0.522276
Pt 0.044552 0 0.522276
Pt 0.044552 0 0.772276
Pt 0.294552 0 0.772276
Pt 0.544552 0 0.772276
Pt 0.794552 0 0.772276
Pt 0.878018 0.120432 0.188071
Pt 0.87761 0.120527 0.43816
Pt 0.878668 0.119956 0.938079
Pt 0.627892 0.120521 0.188341
Pt 0.378295 0.12042 0.188939
Pt 0.12781 0.119708 0.187098
Pt 0.87705 0.120627 0.687699
Pt 0.128151 0.120495 0.937654
Pt 0.627481 0.120943 0.438669
Pt 0.377756 0.12069 0.938077
Pt 0.128124 0.120314 0.438655
Pt 0.627736 0.120798 0.937952
Pt 0.627684 0.121131 0.688781
Pt 0.128027 0.120768 0.688489
Pt 0.37793 0.12072 0.438992
Pt 0.378084 0.121628 0.68855
Pt 0.962288 0.238467 0.854385
Pt 0.961575 0.237924 0.103493
Pt 0.960778 0.238553 0.354592
Pt 0.46133 0.238795 0.10574
Pt 0.711485 0.238751 0.105214
Pt 0.710968 0.239274 0.355373
Pt 0.960401 0.238927 0.604992
Pt 0.21142 0.238068 0.103124
Pt 0.460845 0.239165 0.355638
Pt 0.212279 0.240041 0.853786
Pt 0.711519 0.239425 0.855613
Pt 0.71147 0.239372 0.605781
Pt 0.209895 0.237642 0.35312
Pt 0.46076 0.240303 0.855279
Pt 0.4612 0.240995 0.605604
Pt 0.210489 0.239495 0.6055
Pt 0.040405 0.358978 0.267443
Pt 0.544529 0.360179 0.272883
Pt 0.038839 0.359456 0.520145
Pt 0.546374 0.35953 0.027186
Pt 0.045688 0.35947 0.02128
Pt 0.793743 0.359984 0.272479
Pt 0.295381 0.360294 0.021796
Pt 0.799916 0.359716 0.775043
Pt 0.798061 0.359715 0.025191
Pt 0.795588 0.360792 0.522782
Pt 0.045395 0.360594 0.771954
Pt 0.292977 0.358182 0.267814
Pt 0.551979 0.359099 0.522144
Pt 0.555039 0.36132 0.783567
Pt 0.291958 0.363598 0.774236
Pt 0.279529 0.356976 0.509727
