data_none

_audit_creation_method generated by ABACUS

_cell_length_a 11.5352
_cell_length_b 19.0638
_cell_length_c 11.5352
_cell_angle_alpha 90
_cell_angle_beta 120
_cell_angle_gamma 90

loop_
_atom_site_label
_atom_site_fract_x
_atom_site_fract_y
_atom_site_fract_z
H 0.516596 0.535647 0.662107
H 0.419857 0.535627 0.564645
Au 0.04 0.1 0.04
Au 0.29 0.1 0.04
Au 0.54 0.1 0.04
Au 0.79 0.1 0.04
Au 0.04 0.1 0.29
Au 0.29 0.1 0.29
Au 0.54 0.1 0.29
Au 0.79 0.1 0.29
Au 0.04 0.1 0.54
Au 0.29 0.1 0.54
Au 0.54 0.1 0.54
Au 0.79 0.1 0.54
Au 0.04 0.1 0.79
Au 0.29 0.1 0.79
Au 0.54 0.1 0.79
Au 0.79 0.1 0.79
Au 0.123333 0.223512 0.206667
Au 0.373333 0.223512 0.206667
Au 0.623333 0.223512 0.206667
Au 0.873333 0.223512 0.206667
Au 0.123333 0.223512 0.456667
Au 0.373333 0.223512 0.456667
Au 0.623333 0.223512 0.456667
Au 0.873333 0.223512 0.456667
Au 0.123333 0.223512 0.706667
Au 0.373333 0.223512 0.706667
Au 0.623333 0.223512 0.706667
Au 0.873333 0.223512 0.706667
Au 0.123333 0.223512 0.956667
Au 0.373333 0.223512 0.956667
Au 0.623333 0.223512 0.956667
Au 0.873333 0.223512 0.956667
Au 0.207243 0.346221 0.122773
Au 0.457248 0.346613 0.123529
Au 0.706581 0.347354 0.123766
Au 0.956525 0.347118 0.12368
Au 0.20648 0.347358 0.372133
Au 0.456443 0.348885 0.375819
Au 0.70609 0.346812 0.374015
Au 0.956395 0.347333 0.373574
Au 0.208506 0.348124 0.62287
Au 0.456677 0.34868 0.623517
Au 0.704274 0.348927 0.623655
Au 0.956615 0.346613 0.622858
Au 0.207365 0.346185 0.872784
Au 0.457308 0.348141 0.871701
Au 0.708002 0.347365 0.873676
Au 0.957353 0.346199 0.872898
Au 0.041475 0.474307 0.038784
Au 0.29024 0.473694 0.038539
Au 0.54018 0.474277 0.04348
Au 0.794185 0.475194 0.044439
Au 0.035981 0.475225 0.286231
Au 0.286512 0.474286 0.284573
Au 0.539248 0.474278 0.289661
Au 0.78914 0.47384 0.291197
Au 0.036944 0.474262 0.540072
Au 0.277608 0.475902 0.530862
Au 0.543112 0.480394 0.536697
Au 0.790519 0.474256 0.540981
Au 0.041581 0.473666 0.789865
Au 0.290994 0.474157 0.78928
Au 0.549498 0.47596 0.80298
Au 0.795604 0.474213 0.793726
